REMARK  2 active torsions:
REMARK  status: ('A' for Active; 'I' for Inactive)
REMARK    1  A    between atoms: C_21  and  C_22 
REMARK    2  A    between atoms: C_29  and  O_30 
ROOT
HETATM    1  O   UNL     1       0.824   0.134   0.507  1.00  0.00    -0.259 OA
HETATM    2  C   UNL     1       2.030   0.072   0.702  1.00  0.00     0.299 C 
HETATM    3  O   UNL     1       2.706   0.943   1.541  1.00  0.00    -0.274 OA
HETATM    4  C   UNL     1       3.911   1.366   0.971  1.00  0.00     0.092 C 
HETATM    5  C   UNL     1       4.242   2.703   1.127  1.00  0.00     0.038 C 
HETATM    6  C   UNL     1       5.046   3.282   0.157  1.00  0.00     0.003 C 
HETATM    7  C   UNL     1       5.756   2.469  -0.730  1.00  0.00     0.001 C 
HETATM    8  C   UNL     1       5.636   1.075  -0.664  1.00  0.00     0.017 C 
HETATM    9  C   UNL     1       4.631   0.519   0.126  1.00  0.00     0.028 C 
HETATM   10  C   UNL     1       4.186  -0.879   0.062  1.00  0.00     0.087 C 
HETATM   11  N   UNL     1       5.065  -1.903  -0.204  1.00  0.00    -0.223 NA
HETATM   12  C   UNL     1       4.537  -3.084  -0.121  1.00  0.00     0.175 A 
HETATM   13  S   UNL     1       5.547  -4.549  -0.220  1.00  0.00    -0.050 SA
HETATM   14  C   UNL     1       4.093  -5.576  -0.034  1.00  0.00     0.035 A 
HETATM   15  C   UNL     1       4.024  -6.960  -0.027  1.00  0.00     0.021 A 
HETATM   16  C   UNL     1       2.766  -7.564   0.077  1.00  0.00     0.002 A 
HETATM   17  C   UNL     1       1.616  -6.781   0.206  1.00  0.00     0.002 A 
HETATM   18  C   UNL     1       1.710  -5.390   0.234  1.00  0.00     0.031 A 
HETATM   19  C   UNL     1       2.948  -4.775   0.090  1.00  0.00     0.055 A 
HETATM   20  N   UNL     1       3.211  -3.410   0.049  1.00  0.00    -0.311 N 
HETATM   21  C   UNL     1       2.189  -2.375   0.072  1.00  0.00     0.170 C 
HETATM   22  C   UNL     1       2.857  -1.051   0.237  1.00  0.00     0.075 C 
ENDROOT
BRANCH  21  23
HETATM   23  C   UNL     1       1.328  -2.436  -1.193  1.00  0.00     0.006 A 
HETATM   24  C   UNL     1       1.896  -2.353  -2.479  1.00  0.00     0.031 A 
HETATM   25  C   UNL     1       1.087  -2.426  -3.614  1.00  0.00     0.013 A 
HETATM   26 BR   UNL     1       1.878  -2.326  -5.334  1.00  0.00    -0.051 Br
HETATM   27  C   UNL     1      -0.292  -2.577  -3.504  1.00  0.00     0.041 A 
HETATM   28  C   UNL     1      -0.867  -2.656  -2.240  1.00  0.00     0.046 A 
HETATM   29 BR   UNL     1      -2.741  -2.890  -2.089  1.00  0.00    -0.048 Br
HETATM   30  C   UNL     1      -0.065  -2.581  -1.096  1.00  0.00     0.091 A 
BRANCH  30  31
HETATM   31  O   UNL     1      -0.618  -2.672   0.154  1.00  0.00    -0.359 OA
HETATM   32  H   UNL     1      -1.586  -2.594   0.054  1.00  0.00     0.218 HD
ENDBRANCH  30  31
ENDBRANCH  21  23
TORSDOF 2
