REMARK  2 active torsions:
REMARK  status: ('A' for Active; 'I' for Inactive)
REMARK    1  A    between atoms: C_21  and  C_22 
REMARK    2  A    between atoms: C_23  and  O_24 
ROOT
HETATM    1  O   UNL     1       0.878  -0.047   0.820  1.00  0.00    -0.259 OA
HETATM    2  C   UNL     1       2.098   0.033   0.845  1.00  0.00     0.299 C 
HETATM    3  O   UNL     1       2.817   0.969   1.567  1.00  0.00    -0.274 OA
HETATM    4  C   UNL     1       4.012   1.371   0.988  1.00  0.00     0.092 C 
HETATM    5  C   UNL     1       4.342   2.712   1.117  1.00  0.00     0.038 C 
HETATM    6  C   UNL     1       5.088   3.283   0.097  1.00  0.00     0.003 C 
HETATM    7  C   UNL     1       5.783   2.455  -0.784  1.00  0.00     0.001 C 
HETATM    8  C   UNL     1       5.690   1.061  -0.668  1.00  0.00     0.017 C 
HETATM    9  C   UNL     1       4.718   0.510   0.163  1.00  0.00     0.028 C 
HETATM   10  C   UNL     1       4.281  -0.895   0.118  1.00  0.00     0.087 C 
HETATM   11  N   UNL     1       5.157  -1.933  -0.109  1.00  0.00    -0.223 NA
HETATM   12  C   UNL     1       4.644  -3.113  -0.005  1.00  0.00     0.175 A 
HETATM   13  S   UNL     1       5.646  -4.583  -0.096  1.00  0.00    -0.050 SA
HETATM   14  C   UNL     1       4.184  -5.609   0.031  1.00  0.00     0.035 A 
HETATM   15  C   UNL     1       4.105  -6.992   0.029  1.00  0.00     0.021 A 
HETATM   16  C   UNL     1       2.847  -7.597   0.113  1.00  0.00     0.002 A 
HETATM   17  C   UNL     1       1.693  -6.811   0.218  1.00  0.00     0.002 A 
HETATM   18  C   UNL     1       1.795  -5.416   0.232  1.00  0.00     0.031 A 
HETATM   19  C   UNL     1       3.033  -4.799   0.130  1.00  0.00     0.055 A 
HETATM   20  N   UNL     1       3.314  -3.433   0.091  1.00  0.00    -0.311 N 
HETATM   21  C   UNL     1       2.288  -2.395   0.094  1.00  0.00     0.170 C 
HETATM   22  C   UNL     1       2.956  -1.069   0.281  1.00  0.00     0.075 C 
ENDROOT
BRANCH  21  23
HETATM   23  C   UNL     1       1.420  -2.457  -1.172  1.00  0.00     0.014 A 
HETATM   24  C   UNL     1       1.967  -2.340  -2.467  1.00  0.00     0.075 A 
HETATM   25  C   UNL     1       1.178  -2.437  -3.609  1.00  0.00     0.038 A 
HETATM   26  C   UNL     1      -0.183  -2.671  -3.494  1.00  0.00     0.015 A 
HETATM   27  C   UNL     1      -0.781  -2.797  -2.245  1.00  0.00    -0.025 A 
HETATM   28  C   UNL     1      -2.154  -3.069  -2.171  1.00  0.00     0.012 A 
HETATM   29  C   UNL     1      -0.005  -2.657  -1.057  1.00  0.00    -0.015 A 
HETATM   30  C   UNL     1      -2.802  -3.220  -0.948  1.00  0.00     0.001 A 
HETATM   31  C   UNL     1      -2.085  -3.051   0.226  1.00  0.00     0.001 A 
HETATM   32  C   UNL     1      -0.723  -2.756   0.167  1.00  0.00     0.013 A 
BRANCH  24  33
HETATM   33  O   UNL     1       3.293  -2.121  -2.756  1.00  0.00    -0.360 OA
HETATM   34  H   UNL     1       3.862  -2.381  -2.021  1.00  0.00     0.217 HD
ENDBRANCH  24  33
ENDBRANCH  21  23
TORSDOF 2
