REMARK  1 active torsions:
REMARK  status: ('A' for Active; 'I' for Inactive)
REMARK    1  A    between atoms: C_21  and  C_22 
ROOT
HETATM    1  O   UNL     1       0.748  -0.018   0.691  1.00  0.00    -0.259 OA
HETATM    2  C   UNL     1       1.969   0.015   0.761  1.00  0.00     0.299 C 
HETATM    3  O   UNL     1       2.648   0.949   1.532  1.00  0.00    -0.274 OA
HETATM    4  C   UNL     1       3.853   1.360   0.952  1.00  0.00     0.092 C 
HETATM    5  C   UNL     1       4.191   2.696   1.100  1.00  0.00     0.038 C 
HETATM    6  C   UNL     1       4.974   3.269   0.114  1.00  0.00     0.003 C 
HETATM    7  C   UNL     1       5.691   2.448  -0.757  1.00  0.00     0.001 C 
HETATM    8  C   UNL     1       5.583   1.053  -0.664  1.00  0.00     0.017 C 
HETATM    9  C   UNL     1       4.585   0.500   0.137  1.00  0.00     0.028 C 
HETATM   10  C   UNL     1       4.147  -0.896   0.080  1.00  0.00     0.087 C 
HETATM   11  N   UNL     1       5.024  -1.926  -0.171  1.00  0.00    -0.223 NA
HETATM   12  C   UNL     1       4.495  -3.111  -0.088  1.00  0.00     0.175 A 
HETATM   13  S   UNL     1       5.476  -4.576  -0.215  1.00  0.00    -0.050 SA
HETATM   14  C   UNL     1       4.016  -5.593  -0.019  1.00  0.00     0.035 A 
HETATM   15  C   UNL     1       3.930  -6.974  -0.019  1.00  0.00     0.021 A 
HETATM   16  C   UNL     1       2.668  -7.564   0.107  1.00  0.00     0.002 A 
HETATM   17  C   UNL     1       1.521  -6.777   0.238  1.00  0.00     0.002 A 
HETATM   18  C   UNL     1       1.624  -5.386   0.263  1.00  0.00     0.031 A 
HETATM   19  C   UNL     1       2.874  -4.791   0.123  1.00  0.00     0.055 A 
HETATM   20  N   UNL     1       3.154  -3.428   0.108  1.00  0.00    -0.311 N 
HETATM   21  C   UNL     1       2.161  -2.382   0.034  1.00  0.00     0.167 C 
HETATM   22  C   UNL     1       2.827  -1.075   0.264  1.00  0.00     0.075 C 
ENDROOT
BRANCH  21  23
HETATM   23  C   UNL     1       1.406  -2.463  -1.310  1.00  0.00    -0.030 A 
HETATM   24  C   UNL     1       0.009  -2.620  -1.316  1.00  0.00     0.011 A 
HETATM   25  C   UNL     1      -0.686  -2.812  -2.512  1.00  0.00     0.024 A 
HETATM   26  C   UNL     1       0.007  -2.827  -3.719  1.00  0.00     0.034 A 
HETATM   27 CL   UNL     1      -0.848  -3.098  -5.187  1.00  0.00    -0.084 Cl
HETATM   28  C   UNL     1       1.385  -2.636  -3.743  1.00  0.00     0.024 A 
HETATM   29  C   UNL     1       2.084  -2.456  -2.545  1.00  0.00     0.011 A 
ENDBRANCH  21  23
TORSDOF 1
