REMARK  2 active torsions:
REMARK  status: ('A' for Active; 'I' for Inactive)
REMARK    1  A    between atoms: C_2  and  C_3 
REMARK    2  A    between atoms: C_3  and  C_4 
ROOT
HETATM    1  C   UNL     1       0.491  -0.173   0.138  1.00  0.00     0.005 C 
HETATM    2  C   UNL     1       1.994   0.054   0.198  1.00  0.00    -0.002 C 
ENDROOT
BRANCH   2   3
HETATM    3  C   UNL     1       2.732  -1.022  -0.594  1.00  0.00     0.030 C 
BRANCH   3   4
HETATM    4  C   UNL     1       4.271  -0.941  -0.496  1.00  0.00     0.134 C 
HETATM    5  C   UNL     1       4.823   0.336  -1.029  1.00  0.00     0.070 C 
HETATM    6  C   UNL     1       5.198   0.496  -2.309  1.00  0.00     0.086 C 
HETATM    7  C   UNL     1       5.280   1.321  -0.028  1.00  0.00     0.298 C 
HETATM    8  N   UNL     1       5.331  -0.566  -3.192  1.00  0.00    -0.223 NA
HETATM    9  C   UNL     1       5.795   1.798  -2.605  1.00  0.00     0.024 C 
HETATM   10  C   UNL     1       5.245  -1.727  -2.614  1.00  0.00     0.175 A 
HETATM   11  S   UNL     1       5.675  -3.224  -3.464  1.00  0.00    -0.050 SA
HETATM   12  N   UNL     1       4.856  -1.994  -1.307  1.00  0.00    -0.315 N 
HETATM   13  C   UNL     1       5.219  -4.190  -2.016  1.00  0.00     0.035 A 
HETATM   14  C   UNL     1       5.236  -5.568  -1.891  1.00  0.00     0.021 A 
HETATM   15  C   UNL     1       4.795  -3.346  -0.976  1.00  0.00     0.054 A 
HETATM   16  C   UNL     1       4.740  -6.133  -0.707  1.00  0.00     0.002 A 
HETATM   17  C   UNL     1       4.269  -5.308   0.317  1.00  0.00     0.002 A 
HETATM   18  C   UNL     1       4.321  -3.922   0.183  1.00  0.00     0.031 A 
HETATM   19  C   UNL     1       5.193   2.821  -3.339  1.00  0.00     0.016 C 
HETATM   20  C   UNL     1       6.825   2.159  -1.741  1.00  0.00     0.078 C 
HETATM   21  C   UNL     1       5.619   4.147  -3.135  1.00  0.00    -0.002 C 
HETATM   22  C   UNL     1       6.754   4.420  -2.368  1.00  0.00    -0.014 C 
HETATM   23  C   UNL     1       7.507   3.357  -1.893  1.00  0.00     0.081 C 
HETATM   24  O   UNL     1       6.509   1.898  -0.337  1.00  0.00    -0.278 OA
HETATM   25  O   UNL     1       4.725   1.461   1.054  1.00  0.00    -0.259 OA
ENDBRANCH   3   4
ENDBRANCH   2   3
TORSDOF 2
