REMARK  1 active torsions:
REMARK  status: ('A' for Active; 'I' for Inactive)
REMARK    1  A    between atoms: C_21  and  C_22 
ROOT
HETATM    1  O   UNL     1       0.779   0.105   0.137  1.00  0.00    -0.259 OA
HETATM    2  C   UNL     1       1.930   0.081  -0.276  1.00  0.00     0.299 C 
HETATM    3  O   UNL     1       2.461   1.006  -1.153  1.00  0.00    -0.274 OA
HETATM    4  C   UNL     1       3.732   1.413  -0.731  1.00  0.00     0.092 C 
HETATM    5  C   UNL     1       4.033   2.753  -0.929  1.00  0.00     0.038 C 
HETATM    6  C   UNL     1       5.026   3.316  -0.142  1.00  0.00     0.003 C 
HETATM    7  C   UNL     1       5.814   2.500   0.677  1.00  0.00     0.001 C 
HETATM    8  C   UNL     1       5.642   1.108   0.684  1.00  0.00     0.017 C 
HETATM    9  C   UNL     1       4.556   0.556   0.011  1.00  0.00     0.028 C 
HETATM   10  C   UNL     1       4.145  -0.854   0.086  1.00  0.00     0.087 C 
HETATM   11  N   UNL     1       5.064  -1.882   0.166  1.00  0.00    -0.223 NA
HETATM   12  C   UNL     1       4.546  -3.076   0.128  1.00  0.00     0.175 A 
HETATM   13  S   UNL     1       5.553  -4.538   0.131  1.00  0.00    -0.050 SA
HETATM   14  C   UNL     1       4.093  -5.577   0.073  1.00  0.00     0.035 A 
HETATM   15  C   UNL     1       4.030  -6.961   0.006  1.00  0.00     0.021 A 
HETATM   16  C   UNL     1       2.771  -7.567  -0.018  1.00  0.00     0.002 A 
HETATM   17  C   UNL     1       1.608  -6.788   0.039  1.00  0.00     0.002 A 
HETATM   18  C   UNL     1       1.687  -5.396   0.098  1.00  0.00     0.031 A 
HETATM   19  C   UNL     1       2.931  -4.788   0.090  1.00  0.00     0.055 A 
HETATM   20  N   UNL     1       3.199  -3.413   0.093  1.00  0.00    -0.310 N 
HETATM   21  C   UNL     1       2.178  -2.406  -0.151  1.00  0.00     0.174 C 
HETATM   22  C   UNL     1       2.826  -1.058  -0.056  1.00  0.00     0.075 C 
ENDROOT
BRANCH  21  23
HETATM   23  C   UNL     1       1.427  -2.559  -1.470  1.00  0.00     0.010 A 
HETATM   24  C   UNL     1       0.059  -2.656  -1.651  1.00  0.00     0.017 A 
HETATM   25  C   UNL     1      -0.305  -2.714  -3.023  1.00  0.00     0.008 A 
HETATM   26  C   UNL     1       0.794  -2.654  -3.848  1.00  0.00     0.050 A 
HETATM   27  S   UNL     1       2.257  -2.557  -2.971  1.00  0.00    -0.104 SA
ENDBRANCH  21  23
TORSDOF 1
