REMARK  4 active torsions:
REMARK  status: ('A' for Active; 'I' for Inactive)
REMARK    1  A    between atoms: O_2  and  C_3 
REMARK    2  A    between atoms: C_5  and  C_6 
REMARK    3  A    between atoms: C_29  and  O_30 
REMARK    4  A    between atoms: C_32  and  O_33 
ROOT
HETATM    1  C   UNL     1       6.617  -1.971   3.577  1.00  0.00     0.210 C 
HETATM    2  O   UNL     1       5.599  -1.009   3.354  1.00  0.00    -0.353 OA
ENDROOT
BRANCH   2   3
HETATM    3  C   UNL     1       4.366  -1.416   2.927  1.00  0.00     0.105 A 
HETATM    4  C   UNL     1       3.891  -2.738   3.021  1.00  0.00     0.049 A 
HETATM    5  C   UNL     1       2.570  -3.164   2.616  1.00  0.00    -0.029 A 
HETATM    6  C   UNL     1       1.728  -2.150   2.115  1.00  0.00     0.049 A 
HETATM    7  C   UNL     1       2.195  -0.807   2.021  1.00  0.00     0.105 A 
HETATM    8  C   UNL     1       3.518  -0.448   2.394  1.00  0.00     0.135 A 
BRANCH   5   9
HETATM    9  C   UNL     1       2.339  -4.732   2.522  1.00  0.00     0.145 C 
HETATM   10  C   UNL     1       3.152  -5.694   3.326  1.00  0.00     0.070 C 
HETATM   11  C   UNL     1       3.679  -6.718   2.614  1.00  0.00     0.086 C 
HETATM   12  C   UNL     1       3.374  -5.517   4.756  1.00  0.00     0.299 C 
HETATM   13  N   UNL     1       3.546  -6.832   1.225  1.00  0.00    -0.228 NA
HETATM   14  C   UNL     1       4.367  -7.752   3.370  1.00  0.00     0.028 A 
HETATM   15  C   UNL     1       2.489  -6.241   0.735  1.00  0.00     0.154 C 
HETATM   16  S   UNL     1       1.786  -6.667  -0.812  1.00  0.00    -0.056 SA
HETATM   17  N   UNL     1       1.539  -5.540   1.504  1.00  0.00    -0.213 NA
HETATM   18  C   UNL     1       0.392  -7.203   0.246  1.00  0.00     0.029 A 
HETATM   19  C   UNL     1      -0.212  -8.426  -0.009  1.00  0.00     0.021 A 
HETATM   20  C   UNL     1       0.523  -6.553   1.545  1.00  0.00     0.035 A 
HETATM   21  C   UNL     1      -0.666  -9.134   1.082  1.00  0.00     0.001 A 
HETATM   22  C   UNL     1      -0.556  -8.585   2.375  1.00  0.00     0.002 A 
HETATM   23  C   UNL     1       0.006  -7.288   2.619  1.00  0.00     0.025 A 
HETATM   24  C   UNL     1       4.556  -9.040   2.868  1.00  0.00     0.017 A 
HETATM   25  C   UNL     1       4.818  -7.454   4.654  1.00  0.00     0.092 A 
HETATM   26  C   UNL     1       5.273  -9.979   3.608  1.00  0.00     0.001 A 
HETATM   27  C   UNL     1       5.830  -9.624   4.839  1.00  0.00     0.003 A 
HETATM   28  C   UNL     1       5.595  -8.357   5.375  1.00  0.00     0.038 A 
HETATM   29  O   UNL     1       4.419  -6.265   5.297  1.00  0.00    -0.274 OA
HETATM   30  O   UNL     1       2.763  -4.684   5.414  1.00  0.00    -0.259 OA
ENDBRANCH   5   9
BRANCH   7  31
HETATM   31  O   UNL     1       1.492   0.261   1.529  1.00  0.00    -0.353 OA
HETATM   32  C   UNL     1       0.117   0.136   1.225  1.00  0.00     0.210 C 
ENDBRANCH   7  31
BRANCH   8  33
HETATM   33  O   UNL     1       3.846   0.884   2.229  1.00  0.00    -0.351 OA
HETATM   34  C   UNL     1       5.196   1.225   1.922  1.00  0.00     0.210 C 
ENDBRANCH   8  33
ENDBRANCH   2   3
TORSDOF 4
