REMARK  2 active torsions:
REMARK  status: ('A' for Active; 'I' for Inactive)
REMARK    1  A    between atoms: O_2  and  C_3 
REMARK    2  A    between atoms: C_12  and  C_13 
ROOT
HETATM    1  C   UNL     1       6.037   2.443  -4.304  1.00  0.00     0.210 C 
HETATM    2  O   UNL     1       5.642   1.468  -3.345  1.00  0.00    -0.355 OA
ENDROOT
BRANCH   2   3
HETATM    3  C   UNL     1       4.470   1.689  -2.666  1.00  0.00     0.077 A 
HETATM    4  C   UNL     1       3.855   2.937  -2.605  1.00  0.00     0.038 A 
HETATM    5  C   UNL     1       2.652   3.090  -1.925  1.00  0.00     0.015 A 
HETATM    6  C   UNL     1       2.036   2.005  -1.297  1.00  0.00    -0.025 A 
HETATM    7  C   UNL     1       0.770   2.188  -0.721  1.00  0.00     0.012 A 
HETATM    8  C   UNL     1       2.667   0.733  -1.277  1.00  0.00    -0.015 A 
HETATM    9  C   UNL     1       0.083   1.124  -0.146  1.00  0.00     0.001 A 
HETATM   10  C   UNL     1       0.687  -0.122  -0.084  1.00  0.00     0.001 A 
HETATM   11  C   UNL     1       1.971  -0.303  -0.607  1.00  0.00     0.013 A 
HETATM   12  C   UNL     1       3.916   0.576  -1.975  1.00  0.00     0.014 A 
BRANCH  12  13
HETATM   13  C   UNL     1       4.631  -0.779  -2.128  1.00  0.00     0.170 C 
HETATM   14  C   UNL     1       3.798  -1.811  -2.841  1.00  0.00     0.074 C 
HETATM   15  C   UNL     1       3.892  -3.128  -2.577  1.00  0.00     0.084 C 
HETATM   16  C   UNL     1       2.656  -1.383  -3.653  1.00  0.00     0.295 C 
HETATM   17  N   UNL     1       4.665  -3.641  -1.559  1.00  0.00    -0.223 NA
HETATM   18  C   UNL     1       2.834  -3.942  -3.173  1.00  0.00     0.014 C 
HETATM   19  C   UNL     1       5.153  -2.749  -0.752  1.00  0.00     0.175 C 
HETATM   20  S   UNL     1       5.993  -3.265   0.725  1.00  0.00    -0.050 SA
HETATM   21  N   UNL     1       5.099  -1.363  -0.858  1.00  0.00    -0.311 N 
HETATM   22  C   UNL     1       6.350  -1.563   1.123  1.00  0.00     0.035 A 
HETATM   23  C   UNL     1       7.063  -1.104   2.224  1.00  0.00     0.021 A 
HETATM   24  C   UNL     1       5.857  -0.707   0.121  1.00  0.00     0.055 A 
HETATM   25  C   UNL     1       7.316   0.255   2.334  1.00  0.00     0.002 A 
HETATM   26  C   UNL     1       6.881   1.131   1.339  1.00  0.00     0.002 A 
HETATM   27  C   UNL     1       6.155   0.647   0.233  1.00  0.00     0.031 A 
HETATM   28  C   UNL     1       2.947  -4.865  -4.209  1.00  0.00     0.013 C 
HETATM   29  C   UNL     1       1.557  -3.439  -2.911  1.00  0.00     0.158 C 
HETATM   30  C   UNL     1       1.788  -5.244  -4.919  1.00  0.00     0.001 C 
HETATM   31  C   UNL     1       0.522  -4.869  -4.470  1.00  0.00    -0.001 C 
HETATM   32  C   UNL     1       0.423  -4.134  -3.298  1.00  0.00     0.020 C 
HETATM   33  O   UNL     1       1.465  -2.013  -3.267  1.00  0.00    -0.293 OA
HETATM   34  O   UNL     1       2.694  -0.476  -4.486  1.00  0.00    -0.259 OA
ENDBRANCH  12  13
ENDBRANCH   2   3
TORSDOF 2
