REMARK  2 active torsions:
REMARK  status: ('A' for Active; 'I' for Inactive)
REMARK    1  A    between atoms: C_21  and  C_22 
REMARK    2  A    between atoms: C_26  and  O_27 
ROOT
HETATM    1  O   UNL     1       0.757   0.100   0.274  1.00  0.00    -0.259 OA
HETATM    2  C   UNL     1       1.881   0.000  -0.201  1.00  0.00     0.299 C 
HETATM    3  O   UNL     1       2.409   0.860  -1.151  1.00  0.00    -0.274 OA
HETATM    4  C   UNL     1       3.711   1.239  -0.792  1.00  0.00     0.092 C 
HETATM    5  C   UNL     1       4.049   2.561  -1.019  1.00  0.00     0.038 C 
HETATM    6  C   UNL     1       4.931   3.147  -0.127  1.00  0.00     0.003 C 
HETATM    7  C   UNL     1       5.699   2.340   0.717  1.00  0.00     0.001 C 
HETATM    8  C   UNL     1       5.582   0.943   0.667  1.00  0.00     0.017 C 
HETATM    9  C   UNL     1       4.516   0.385  -0.031  1.00  0.00     0.028 C 
HETATM   10  C   UNL     1       4.084  -1.014   0.043  1.00  0.00     0.087 A 
HETATM   11  N   UNL     1       4.987  -2.057   0.078  1.00  0.00    -0.223 NA
HETATM   12  C   UNL     1       4.444  -3.236   0.028  1.00  0.00     0.175 A 
HETATM   13  S   UNL     1       5.439  -4.712   0.016  1.00  0.00    -0.050 SA
HETATM   14  C   UNL     1       3.965  -5.723   0.004  1.00  0.00     0.035 A 
HETATM   15  C   UNL     1       3.885  -7.106  -0.008  1.00  0.00     0.021 A 
HETATM   16  C   UNL     1       2.620  -7.698   0.021  1.00  0.00     0.002 A 
HETATM   17  C   UNL     1       1.466  -6.912   0.077  1.00  0.00     0.002 A 
HETATM   18  C   UNL     1       1.563  -5.520   0.083  1.00  0.00     0.031 A 
HETATM   19  C   UNL     1       2.816  -4.915   0.023  1.00  0.00     0.055 A 
HETATM   20  N   UNL     1       3.099  -3.550  -0.019  1.00  0.00    -0.311 N 
HETATM   21  C   UNL     1       2.085  -2.509  -0.059  1.00  0.00     0.167 A 
HETATM   22  C   UNL     1       2.751  -1.179  -0.008  1.00  0.00     0.075 A 
ENDROOT
BRANCH  21  23
HETATM   23  C   UNL     1       1.239  -2.609  -1.323  1.00  0.00    -0.028 A 
HETATM   24  C   UNL     1       1.811  -2.558  -2.607  1.00  0.00     0.010 A 
HETATM   25  C   UNL     1       0.996  -2.529  -3.739  1.00  0.00     0.003 A 
HETATM   26  C   UNL     1      -0.395  -2.565  -3.603  1.00  0.00     0.036 A 
HETATM   27  C   UNL     1      -0.969  -2.626  -2.337  1.00  0.00     0.066 A 
HETATM   28  C   UNL     1      -0.163  -2.642  -1.202  1.00  0.00     0.046 A 
BRANCH  27  29
HETATM   29  O   UNL     1      -2.307  -2.659  -2.132  1.00  0.00    -0.361 OA
HETATM   30  H   UNL     1      -2.754  -2.542  -2.992  1.00  0.00     0.217 HD
ENDBRANCH  27  29
ENDBRANCH  21  23
TORSDOF 2
