REMARK  1 active torsions:
REMARK  status: ('A' for Active; 'I' for Inactive)
REMARK    1  A    between atoms: C_21  and  C_22 
ROOT
HETATM    1  O   UNL     1       0.673   0.109   0.311  1.00  0.00    -0.259 OA
HETATM    2  C   UNL     1       1.860   0.050   0.588  1.00  0.00     0.299 C 
HETATM    3  O   UNL     1       2.480   0.941   1.465  1.00  0.00    -0.274 OA
HETATM    4  C   UNL     1       3.718   1.361   0.962  1.00  0.00     0.092 C 
HETATM    5  C   UNL     1       4.021   2.708   1.075  1.00  0.00     0.038 C 
HETATM    6  C   UNL     1       4.810   3.270   0.083  1.00  0.00     0.003 C 
HETATM    7  C   UNL     1       5.546   2.439  -0.764  1.00  0.00     0.001 C 
HETATM    8  C   UNL     1       5.469   1.046  -0.633  1.00  0.00     0.017 C 
HETATM    9  C   UNL     1       4.482   0.497   0.181  1.00  0.00     0.028 C 
HETATM   10  C   UNL     1       4.054  -0.903   0.143  1.00  0.00     0.087 C 
HETATM   11  N   UNL     1       4.965  -1.931   0.015  1.00  0.00    -0.223 NA
HETATM   12  C   UNL     1       4.432  -3.115   0.022  1.00  0.00     0.175 A 
HETATM   13  S   UNL     1       5.443  -4.574  -0.031  1.00  0.00    -0.050 SA
HETATM   14  C   UNL     1       3.982  -5.604   0.012  1.00  0.00     0.035 A 
HETATM   15  C   UNL     1       3.927  -6.998  -0.019  1.00  0.00     0.021 A 
HETATM   16  C   UNL     1       2.675  -7.610   0.039  1.00  0.00     0.002 A 
HETATM   17  C   UNL     1       1.520  -6.834   0.132  1.00  0.00     0.002 A 
HETATM   18  C   UNL     1       1.585  -5.438   0.167  1.00  0.00     0.031 A 
HETATM   19  C   UNL     1       2.827  -4.809   0.085  1.00  0.00     0.055 A 
HETATM   20  N   UNL     1       3.085  -3.445   0.061  1.00  0.00    -0.311 N 
HETATM   21  C   UNL     1       2.064  -2.407  -0.006  1.00  0.00     0.170 C 
HETATM   22  C   UNL     1       2.724  -1.079   0.198  1.00  0.00     0.075 C 
ENDROOT
BRANCH  21  23
HETATM   23  C   UNL     1       1.242  -2.488  -1.303  1.00  0.00     0.013 A 
HETATM   24  C   UNL     1      -0.171  -2.601  -1.242  1.00  0.00     0.044 A 
HETATM   25 CL   UNL     1      -1.056  -2.686   0.252  1.00  0.00    -0.084 Cl
HETATM   26  C   UNL     1      -0.950  -2.669  -2.399  1.00  0.00     0.024 A 
HETATM   27  C   UNL     1      -0.362  -2.606  -3.656  1.00  0.00     0.003 A 
HETATM   28  C   UNL     1       1.009  -2.483  -3.751  1.00  0.00     0.024 A 
HETATM   29  C   UNL     1       1.810  -2.426  -2.595  1.00  0.00     0.044 A 
HETATM   30 CL   UNL     1       3.501  -2.280  -2.914  1.00  0.00    -0.084 Cl
ENDBRANCH  21  23
TORSDOF 1
