REMARK  1 active torsions:
REMARK  status: ('A' for Active; 'I' for Inactive)
REMARK    1  A    between atoms: C_21  and  C_22 
ROOT
HETATM    1  O   UNL     1       0.628  -0.129   0.682  1.00  0.00    -0.259 OA
HETATM    2  C   UNL     1       1.852  -0.040   0.688  1.00  0.00     0.299 C 
HETATM    3  O   UNL     1       2.510   0.969   1.375  1.00  0.00    -0.274 OA
HETATM    4  C   UNL     1       3.747   1.354   0.839  1.00  0.00     0.092 C 
HETATM    5  C   UNL     1       4.076   2.699   0.958  1.00  0.00     0.038 C 
HETATM    6  C   UNL     1       5.012   3.223   0.076  1.00  0.00     0.003 C 
HETATM    7  C   UNL     1       5.751   2.365  -0.743  1.00  0.00     0.001 C 
HETATM    8  C   UNL     1       5.557   0.979  -0.676  1.00  0.00     0.017 C 
HETATM    9  C   UNL     1       4.500   0.464   0.075  1.00  0.00     0.028 C 
HETATM   10  C   UNL     1       4.039  -0.926  -0.005  1.00  0.00     0.087 C 
HETATM   11  N   UNL     1       4.918  -1.964  -0.262  1.00  0.00    -0.223 NA
HETATM   12  C   UNL     1       4.402  -3.150  -0.176  1.00  0.00     0.175 A 
HETATM   13  S   UNL     1       5.415  -4.606  -0.277  1.00  0.00    -0.050 SA
HETATM   14  C   UNL     1       3.963  -5.637  -0.088  1.00  0.00     0.035 A 
HETATM   15  C   UNL     1       3.899  -7.025  -0.109  1.00  0.00     0.021 A 
HETATM   16  C   UNL     1       2.641  -7.623  -0.009  1.00  0.00     0.002 A 
HETATM   17  C   UNL     1       1.485  -6.846   0.124  1.00  0.00     0.002 A 
HETATM   18  C   UNL     1       1.573  -5.454   0.170  1.00  0.00     0.031 A 
HETATM   19  C   UNL     1       2.813  -4.838   0.052  1.00  0.00     0.055 A 
HETATM   20  N   UNL     1       3.076  -3.472   0.027  1.00  0.00    -0.311 N 
HETATM   21  C   UNL     1       2.052  -2.437  -0.039  1.00  0.00     0.167 C 
HETATM   22  C   UNL     1       2.717  -1.111   0.168  1.00  0.00     0.075 C 
ENDROOT
BRANCH  21  23
HETATM   23  C   UNL     1       1.315  -2.517  -1.370  1.00  0.00    -0.030 A 
HETATM   24  C   UNL     1      -0.086  -2.642  -1.366  1.00  0.00     0.009 A 
HETATM   25  C   UNL     1      -0.791  -2.781  -2.561  1.00  0.00     0.001 A 
HETATM   26  C   UNL     1      -0.111  -2.776  -3.777  1.00  0.00     0.000 A 
HETATM   27  C   UNL     1       1.275  -2.624  -3.797  1.00  0.00     0.001 A 
HETATM   28  C   UNL     1       1.983  -2.495  -2.601  1.00  0.00     0.009 A 
ENDBRANCH  21  23
TORSDOF 1
