REMARK  1 active torsions:
REMARK  status: ('A' for Active; 'I' for Inactive)
REMARK    1  A    between atoms: C_5  and  C_6 
ROOT
HETATM    1  C   UNL     1       2.513   0.172  -0.049  1.00  0.00     0.048 C 
HETATM    2  C   UNL     1       1.032   0.056  -0.114  1.00  0.00    -0.062 A 
HETATM    3  C   UNL     1       0.188   1.101   0.309  1.00  0.00     0.007 A 
HETATM    4  C   UNL     1      -1.200   0.997   0.181  1.00  0.00     0.010 A 
HETATM    5  C   UNL     1      -1.786  -0.175  -0.331  1.00  0.00    -0.030 A 
HETATM    6  C   UNL     1      -0.939  -1.224  -0.735  1.00  0.00     0.010 A 
HETATM    7  C   UNL     1       0.444  -1.097  -0.633  1.00  0.00     0.007 A 
ENDROOT
BRANCH   5   8
HETATM    8  C   UNL     1      -3.303  -0.314  -0.554  1.00  0.00     0.167 A 
HETATM    9  C   UNL     1      -3.725   0.328  -1.838  1.00  0.00     0.074 A 
HETATM   10  C   UNL     1      -4.726   1.217  -1.950  1.00  0.00     0.084 A 
HETATM   11  C   UNL     1      -2.810   0.198  -2.983  1.00  0.00     0.295 C 
HETATM   12  N   UNL     1      -5.421   1.715  -0.871  1.00  0.00    -0.223 NA
HETATM   13  C   UNL     1      -4.721   1.945  -3.221  1.00  0.00     0.014 C 
HETATM   14  C   UNL     1      -5.017   1.266   0.277  1.00  0.00     0.175 A 
HETATM   15  S   UNL     1      -5.638   1.958   1.795  1.00  0.00    -0.050 SA
HETATM   16  N   UNL     1      -4.078   0.280   0.532  1.00  0.00    -0.311 N 
HETATM   17  C   UNL     1      -4.593   0.861   2.742  1.00  0.00     0.035 A 
HETATM   18  C   UNL     1      -4.442   0.816   4.121  1.00  0.00     0.021 A 
HETATM   19  C   UNL     1      -3.886  -0.002   1.887  1.00  0.00     0.055 A 
HETATM   20  C   UNL     1      -3.599  -0.154   4.665  1.00  0.00     0.002 A 
HETATM   21  C   UNL     1      -2.934  -1.062   3.832  1.00  0.00     0.002 A 
HETATM   22  C   UNL     1      -3.079  -0.989   2.443  1.00  0.00     0.031 A 
HETATM   23  C   UNL     1      -5.601   1.797  -4.289  1.00  0.00     0.013 C 
HETATM   24  C   UNL     1      -3.477   2.509  -3.501  1.00  0.00     0.158 C 
HETATM   25  C   UNL     1      -5.216   2.260  -5.565  1.00  0.00     0.001 C 
HETATM   26  C   UNL     1      -4.069   3.039  -5.723  1.00  0.00    -0.001 C 
HETATM   27  C   UNL     1      -3.301   3.324  -4.607  1.00  0.00     0.020 C 
HETATM   28  O   UNL     1      -2.419   1.454  -3.450  1.00  0.00    -0.293 OA
HETATM   29  O   UNL     1      -2.372  -0.869  -3.386  1.00  0.00    -0.259 OA
ENDBRANCH   5   8
TORSDOF 1
