REMARK  1 active torsions:
REMARK  status: ('A' for Active; 'I' for Inactive)
REMARK    1  A    between atoms: C_2  and  C_4 
ROOT
HETATM    1  C   UNL     1       0.711  -0.511   0.292  1.00  0.00     0.012 C 
HETATM    2  C   UNL     1       2.088  -0.013  -0.141  1.00  0.00     0.005 C 
HETATM    3  C   UNL     1       2.129   0.172  -1.663  1.00  0.00     0.012 C 
ENDROOT
BRANCH   2   4
HETATM    4  C   UNL     1       2.576   1.219   0.689  1.00  0.00     0.137 C 
HETATM    5  C   UNL     1       1.692   2.426   0.659  1.00  0.00     0.071 C 
HETATM    6  C   UNL     1       1.876   3.443  -0.206  1.00  0.00     0.087 C 
HETATM    7  C   UNL     1       0.894   2.677   1.875  1.00  0.00     0.299 C 
HETATM    8  N   UNL     1       2.981   3.522  -1.041  1.00  0.00    -0.223 NA
HETATM    9  C   UNL     1       1.039   4.608   0.045  1.00  0.00     0.028 C 
HETATM   10  C   UNL     1       3.916   2.691  -0.701  1.00  0.00     0.175 A 
HETATM   11  S   UNL     1       5.522   2.734  -1.505  1.00  0.00    -0.050 SA
HETATM   12  N   UNL     1       3.877   1.674   0.222  1.00  0.00    -0.315 N 
HETATM   13  C   UNL     1       6.024   1.261  -0.612  1.00  0.00     0.035 A 
HETATM   14  C   UNL     1       7.199   0.542  -0.758  1.00  0.00     0.021 A 
HETATM   15  C   UNL     1       5.006   0.858   0.259  1.00  0.00     0.054 A 
HETATM   16  C   UNL     1       7.333  -0.647  -0.047  1.00  0.00     0.002 A 
HETATM   17  C   UNL     1       6.341  -1.059   0.844  1.00  0.00     0.002 A 
HETATM   18  C   UNL     1       5.191  -0.291   1.015  1.00  0.00     0.031 A 
HETATM   19  C   UNL     1       0.025   5.109  -0.772  1.00  0.00     0.017 C 
HETATM   20  C   UNL     1       1.072   5.054   1.360  1.00  0.00     0.092 C 
HETATM   21  C   UNL     1      -0.928   5.991  -0.229  1.00  0.00     0.001 C 
HETATM   22  C   UNL     1      -0.744   6.537   1.042  1.00  0.00     0.003 C 
HETATM   23  C   UNL     1       0.398   6.201   1.748  1.00  0.00     0.038 C 
HETATM   24  O   UNL     1       0.996   3.988   2.344  1.00  0.00    -0.274 OA
HETATM   25  O   UNL     1       0.374   1.770   2.513  1.00  0.00    -0.259 OA
ENDBRANCH   2   4
TORSDOF 1
