REMARK  1 active torsions:
REMARK  status: ('A' for Active; 'I' for Inactive)
REMARK    1  A    between atoms: C_21  and  C_22 
ROOT
HETATM    1  O   UNL     1       0.778  -0.113   0.540  1.00  0.00    -0.259 OA
HETATM    2  C   UNL     1       2.000  -0.069   0.591  1.00  0.00     0.299 C 
HETATM    3  O   UNL     1       2.673   0.887   1.329  1.00  0.00    -0.274 OA
HETATM    4  C   UNL     1       3.869   1.304   0.739  1.00  0.00     0.092 C 
HETATM    5  C   UNL     1       4.185   2.650   0.880  1.00  0.00     0.038 C 
HETATM    6  C   UNL     1       5.166   3.189   0.059  1.00  0.00     0.003 C 
HETATM    7  C   UNL     1       5.882   2.356  -0.807  1.00  0.00     0.001 C 
HETATM    8  C   UNL     1       5.651   0.971  -0.825  1.00  0.00     0.017 C 
HETATM    9  C   UNL     1       4.613   0.433  -0.061  1.00  0.00     0.028 C 
HETATM   10  C   UNL     1       4.166  -0.965  -0.137  1.00  0.00     0.087 C 
HETATM   11  N   UNL     1       5.049  -1.999  -0.386  1.00  0.00    -0.223 NA
HETATM   12  C   UNL     1       4.529  -3.187  -0.300  1.00  0.00     0.175 A 
HETATM   13  S   UNL     1       5.535  -4.653  -0.384  1.00  0.00    -0.050 SA
HETATM   14  C   UNL     1       4.084  -5.679  -0.168  1.00  0.00     0.035 A 
HETATM   15  C   UNL     1       4.015  -7.066  -0.144  1.00  0.00     0.021 A 
HETATM   16  C   UNL     1       2.760  -7.670  -0.026  1.00  0.00     0.002 A 
HETATM   17  C   UNL     1       1.606  -6.887   0.087  1.00  0.00     0.002 A 
HETATM   18  C   UNL     1       1.693  -5.493   0.090  1.00  0.00     0.031 A 
HETATM   19  C   UNL     1       2.933  -4.881  -0.051  1.00  0.00     0.055 A 
HETATM   20  N   UNL     1       3.206  -3.510  -0.113  1.00  0.00    -0.311 N 
HETATM   21  C   UNL     1       2.185  -2.481  -0.100  1.00  0.00     0.167 C 
HETATM   22  C   UNL     1       2.850  -1.155   0.069  1.00  0.00     0.075 C 
ENDROOT
BRANCH  21  23
HETATM   23  C   UNL     1       1.334  -2.527  -1.372  1.00  0.00    -0.029 A 
HETATM   24  C   UNL     1       1.901  -2.481  -2.659  1.00  0.00     0.010 A 
HETATM   25  C   UNL     1       1.090  -2.495  -3.797  1.00  0.00     0.002 A 
HETATM   26  C   UNL     1      -0.298  -2.557  -3.665  1.00  0.00     0.024 A 
HETATM   27  C   UNL     1      -0.869  -2.612  -2.398  1.00  0.00     0.034 A 
HETATM   28 CL   UNL     1      -2.578  -2.702  -2.227  1.00  0.00    -0.084 Cl
HETATM   29  C   UNL     1      -0.065  -2.592  -1.260  1.00  0.00     0.033 A 
ENDBRANCH  21  23
TORSDOF 1
