REMARK  3 active torsions:
REMARK  status: ('A' for Active; 'I' for Inactive)
REMARK    1  A    between atoms: C_2  and  O_3 
REMARK    2  A    between atoms: O_3  and  C_4 
REMARK    3  A    between atoms: C_7  and  C_8 
ROOT
HETATM    1  C   UNL     1       1.808   0.551  -0.676  1.00  0.00     0.034 C 
HETATM    2  C   UNL     1       3.314   0.338  -0.813  1.00  0.00     0.171 C 
ENDROOT
BRANCH   2   3
HETATM    3  O   UNL     1       3.912   0.117   0.470  1.00  0.00    -0.352 OA
BRANCH   3   4
HETATM    4  C   UNL     1       5.281   0.214   0.542  1.00  0.00     0.068 A 
HETATM    5  C   UNL     1       5.794   0.435   1.813  1.00  0.00     0.037 A 
HETATM    6  C   UNL     1       7.171   0.643   1.998  1.00  0.00     0.012 A 
HETATM    7  C   UNL     1       8.111   0.645   0.916  1.00  0.00    -0.035 A 
HETATM    8  C   UNL     1       7.586   0.346  -0.343  1.00  0.00     0.012 A 
HETATM    9  C   UNL     1       6.187   0.126  -0.523  1.00  0.00     0.037 A 
BRANCH   7  10
HETATM   10  C   UNL     1       9.508   1.295   1.177  1.00  0.00     0.145 C 
HETATM   11  C   UNL     1      10.176   1.358   2.486  1.00  0.00     0.070 C 
HETATM   12  C   UNL     1      10.736   2.547   2.795  1.00  0.00     0.086 C 
HETATM   13  C   UNL     1      10.207   0.202   3.406  1.00  0.00     0.299 C 
HETATM   14  N   UNL     1      10.637   3.658   1.955  1.00  0.00    -0.228 NA
HETATM   15  C   UNL     1      11.547   2.596   4.001  1.00  0.00     0.028 A 
HETATM   16  C   UNL     1      10.458   3.368   0.696  1.00  0.00     0.154 C 
HETATM   17  S   UNL     1      10.829   4.466  -0.621  1.00  0.00    -0.056 SA
HETATM   18  N   UNL     1      10.364   2.061   0.189  1.00  0.00    -0.213 NA
HETATM   19  C   UNL     1      12.046   3.168  -1.049  1.00  0.00     0.029 A 
HETATM   20  C   UNL     1      13.341   3.552  -1.395  1.00  0.00     0.021 A 
HETATM   21  C   UNL     1      11.676   1.945  -0.359  1.00  0.00     0.035 A 
HETATM   22  C   UNL     1      14.378   2.742  -0.968  1.00  0.00     0.001 A 
HETATM   23  C   UNL     1      14.085   1.560  -0.260  1.00  0.00     0.002 A 
HETATM   24  C   UNL     1      12.748   1.137   0.021  1.00  0.00     0.025 A 
HETATM   25  C   UNL     1      12.527   3.573   4.196  1.00  0.00     0.017 A 
HETATM   26  C   UNL     1      11.381   1.610   4.970  1.00  0.00     0.092 A 
HETATM   27  C   UNL     1      13.254   3.604   5.387  1.00  0.00     0.001 A 
HETATM   28  C   UNL     1      12.989   2.676   6.396  1.00  0.00     0.003 A 
HETATM   29  C   UNL     1      12.053   1.664   6.187  1.00  0.00     0.038 A 
HETATM   30  O   UNL     1      10.595   0.472   4.713  1.00  0.00    -0.274 OA
HETATM   31  O   UNL     1       9.831  -0.913   3.061  1.00  0.00    -0.259 OA
ENDBRANCH   7  10
ENDBRANCH   3   4
ENDBRANCH   2   3
TORSDOF 3
