REMARK  16 active torsions:
REMARK  status: ('A' for Active; 'I' for Inactive)
REMARK    1  A    between atoms: N_1  and  C_3 
REMARK    2  A    between atoms: C_8  and  O_14 
REMARK    3  A    between atoms: C_10  and  N_16 
REMARK    4  A    between atoms: C_12  and  C_17 
REMARK    5  A    between atoms: C_13  and  O_18 
REMARK    6  A    between atoms: C_17  and  O_19 
REMARK    7  A    between atoms: O_19  and  P_43 
REMARK    8  A    between atoms: O_20  and  C_21 
REMARK    9  A    between atoms: O_20  and  P_41 
REMARK   10  A    between atoms: C_21  and  C_22 
REMARK   11  A    between atoms: C_24  and  O_27 
REMARK   12  A    between atoms: C_25  and  N_28 
REMARK   13  A    between atoms: C_26  and  O_29 
REMARK   14  A    between atoms: C_32  and  C_35 
REMARK       I    between atoms: C_35  and  N_37 
REMARK   15  A    between atoms: O_38  and  P_43 
REMARK   16  A    between atoms: O_38  and  P_41 
ROOT
HETATM    1  N   UNL     1      -6.623  12.183   2.654  1.00  0.00    -0.294 N 
HETATM    2  C   UNL     1      -7.737  12.961   2.837  1.00  0.00     0.166 A 
HETATM    3  C   UNL     1      -5.728  12.912   1.915  1.00  0.00     0.214 A 
HETATM    4  C   UNL     1      -7.494  14.104   2.093  1.00  0.00     0.144 A 
HETATM    5  N   UNL     1      -8.846  12.675   3.540  1.00  0.00    -0.222 NA
HETATM    6  N   UNL     1      -6.239  14.064   1.522  1.00  0.00    -0.236 NA
HETATM    7  C   UNL     1      -8.537  15.042   2.020  1.00  0.00     0.135 A 
HETATM    8  C   UNL     1      -9.763  13.653   3.415  1.00  0.00     0.237 A 
HETATM    9  N   UNL     1      -9.684  14.793   2.692  1.00  0.00    -0.228 NA
ENDROOT
BRANCH   1  10
HETATM   10  C   UNL     1      -6.494  10.801   3.071  1.00  0.00     0.262 C 
HETATM   11  O   UNL     1      -5.100  10.448   3.234  1.00  0.00    -0.353 OA
HETATM   12  C   UNL     1      -4.932   9.048   2.871  1.00  0.00     0.180 C 
HETATM   13  C   UNL     1      -6.339   8.543   2.506  1.00  0.00     0.182 C 
HETATM   14  C   UNL     1      -7.050   9.809   2.049  1.00  0.00     0.198 C 
BRANCH  12  15
HETATM   15  C   UNL     1      -3.946   8.890   1.698  1.00  0.00     0.216 C 
BRANCH  15  16
HETATM   16  O   UNL     1      -2.627   9.341   1.966  1.00  0.00    -0.287 OA
BRANCH  16  17
HETATM   17  P   UNL     1      -1.712   8.588   3.226  1.00  0.00     0.417 P 
HETATM   18  O   UNL     1      -0.551   9.429   2.654  1.00  0.00    -0.624 OA
HETATM   19  O   UNL     1      -0.796   7.834   4.486  1.00  0.00    -0.624 OA
BRANCH  17  20
HETATM   20  O   UNL     1      -1.848   7.065   2.415  1.00  0.00    -0.180 OA
BRANCH  20  21
HETATM   21  P   UNL     1      -1.835   5.788   3.582  1.00  0.00     0.417 P 
HETATM   22  O   UNL     1      -0.283   5.772   3.385  1.00  0.00    -0.624 OA
HETATM   23  O   UNL     1      -1.822   4.510   4.748  1.00  0.00    -0.624 OA
BRANCH  21  24
HETATM   24  O   UNL     1      -2.225   4.699   2.347  1.00  0.00    -0.287 OA
BRANCH  24  25
HETATM   25  C   UNL     1      -1.051   3.975   1.854  1.00  0.00     0.216 C 
BRANCH  25  26
HETATM   26  C   UNL     1      -0.135   3.272   2.919  1.00  0.00     0.180 C 
HETATM   27  O   UNL     1      -0.845   2.232   3.609  1.00  0.00    -0.353 OA
HETATM   28  C   UNL     1      -0.422   0.969   3.192  1.00  0.00     0.259 C 
HETATM   29  C   UNL     1       0.606   1.176   2.060  1.00  0.00     0.198 C 
HETATM   30  C   UNL     1       1.085   2.602   2.296  1.00  0.00     0.182 C 
BRANCH  28  31
HETATM   31  N   UNL     1      -1.604   0.189   2.748  1.00  0.00    -0.337 N 
HETATM   32  C   UNL     1      -1.503  -1.159   2.459  1.00  0.00     0.106 C 
HETATM   33  C   UNL     1      -2.523  -1.865   1.920  1.00  0.00     0.028 C 
HETATM   34  C   UNL     1      -3.802  -1.143   1.537  1.00  0.00     0.074 C 
HETATM   35  C   UNL     1      -3.949   0.186   2.224  1.00  0.00    -0.005 C 
HETATM   36  C   UNL     1      -2.876   0.770   2.768  1.00  0.00     0.089 C 
BRANCH  33  37
HETATM   37  C   UNL     1      -2.512  -3.336   1.787  1.00  0.00     0.247 C 
HETATM   38  O   UNL     1      -3.536  -3.975   1.563  1.00  0.00    -0.268 OA
HETATM   39  N   UNL     1      -1.329  -3.978   1.929  1.00  0.00    -0.366 N 
HETATM   40  H   UNL     1      -0.445  -3.499   2.011  1.00  0.00     0.159 HD
HETATM   41  H   UNL     1      -1.334  -4.983   1.877  1.00  0.00     0.159 HD
ENDBRANCH  33  37
ENDBRANCH  28  31
BRANCH  29  42
HETATM   42  O   UNL     1       1.711   0.248   2.127  1.00  0.00    -0.388 OA
HETATM   43  H   UNL     1       2.316   0.688   2.770  1.00  0.00     0.210 HD
ENDBRANCH  29  42
BRANCH  30  44
HETATM   44  O   UNL     1       2.200   2.546   3.233  1.00  0.00    -0.390 OA
HETATM   45  H   UNL     1       2.216   3.442   3.640  1.00  0.00     0.210 HD
ENDBRANCH  30  44
ENDBRANCH  25  26
ENDBRANCH  24  25
ENDBRANCH  21  24
ENDBRANCH  20  21
ENDBRANCH  17  20
ENDBRANCH  16  17
ENDBRANCH  15  16
ENDBRANCH  12  15
BRANCH  13  46
HETATM   46  O   UNL     1      -7.078   8.085   3.662  1.00  0.00    -0.390 OA
HETATM   47  H   UNL     1      -6.442   7.796   4.343  1.00  0.00     0.210 HD
ENDBRANCH  13  46
BRANCH  14  48
HETATM   48  O   UNL     1      -8.467   9.643   2.094  1.00  0.00    -0.388 OA
HETATM   49  H   UNL     1      -8.631   9.062   2.866  1.00  0.00     0.210 HD
ENDBRANCH  14  48
ENDBRANCH   1  10
BRANCH   7  50
HETATM   50  N   UNL     1      -8.481  16.191   1.230  1.00  0.00    -0.285 NA
HETATM   51  H   UNL     1      -7.781  16.101   0.501  1.00  0.00     0.125 HD
HETATM   52  H   UNL     1      -9.412  16.463   0.941  1.00  0.00     0.125 HD
ENDBRANCH   7  50
TORSDOF 16
