MODEL 1
REMARK VINA RESULT:     -10.2      0.000      0.000
REMARK  2 active torsions:
REMARK  status: ('A' for Active; 'I' for Inactive)
REMARK    1  A    between atoms: C_21  and  C_22 
REMARK    2  A    between atoms: C_25  and  N_26 
ROOT
HETATM    1  O   UNL     1       7.634  16.150 -31.147  1.00  0.00    -0.259 OA
HETATM    2  C   UNL     1       8.576  15.717 -30.518  1.00  0.00     0.299 C 
HETATM    3  O   UNL     1       8.606  14.424 -29.996  1.00  0.00    -0.274 OA
HETATM    4  C   UNL     1       9.320  14.293 -28.802  1.00  0.00     0.092 C 
HETATM    5  C   UNL     1       8.809  13.405 -27.861  1.00  0.00     0.038 C 
HETATM    6  C   UNL     1       9.077  13.661 -26.522  1.00  0.00     0.003 C 
HETATM    7  C   UNL     1      10.088  14.556 -26.177  1.00  0.00     0.001 C 
HETATM    8  C   UNL     1      10.810  15.236 -27.187  1.00  0.00     0.017 C 
HETATM    9  C   UNL     1      10.362  15.171 -28.491  1.00  0.00     0.028 C 
HETATM   10  C   UNL     1      10.822  16.069 -29.558  1.00  0.00     0.087 C 
HETATM   11  N   UNL     1      12.122  16.520 -29.607  1.00  0.00    -0.223 NA
HETATM   12  C   UNL     1      12.428  17.190 -30.668  1.00  0.00     0.175 A 
HETATM   13  S   UNL     1      14.081  17.712 -31.021  1.00  0.00    -0.050 SA
HETATM   14  C   UNL     1      13.534  18.516 -32.525  1.00  0.00     0.035 A 
HETATM   15  C   UNL     1      14.287  19.251 -33.432  1.00  0.00     0.021 A 
HETATM   16  C   UNL     1      13.633  19.857 -34.506  1.00  0.00     0.002 A 
HETATM   17  C   UNL     1      12.256  19.713 -34.672  1.00  0.00     0.002 A 
HETATM   18  C   UNL     1      11.509  18.946 -33.769  1.00  0.00     0.031 A 
HETATM   19  C   UNL     1      12.148  18.356 -32.682  1.00  0.00     0.055 A 
HETATM   20  N   UNL     1      11.562  17.601 -31.668  1.00  0.00    -0.311 N 
HETATM   21  C   UNL     1      10.125  17.435 -31.512  1.00  0.00     0.167 C 
HETATM   22  C   UNL     1       9.881  16.412 -30.451  1.00  0.00     0.075 C 
ENDROOT
BRANCH  21  23
HETATM   23  C   UNL     1       9.466  18.781 -31.194  1.00  0.00    -0.030 A 
HETATM   24  C   UNL     1       9.775  19.421 -29.984  1.00  0.00     0.012 A 
HETATM   25  C   UNL     1       9.091  20.576 -29.579  1.00  0.00     0.037 A 
HETATM   26  C   UNL     1       8.109  21.118 -30.427  1.00  0.00     0.102 A 
HETATM   27  C   UNL     1       7.834  20.530 -31.675  1.00  0.00     0.037 A 
HETATM   28  C   UNL     1       8.517  19.376 -32.048  1.00  0.00     0.012 A 
BRANCH  26  29
HETATM   29  N   UNL     1       7.342  22.298 -29.988  1.00  0.00    -0.116 N 
HETATM   30  O   UNL     1       6.425  22.693 -30.729  1.00  0.00    -0.532 OA
HETATM   31  O   UNL     1       7.668  22.823 -28.920  1.00  0.00    -0.532 OA
ENDBRANCH  26  29
ENDBRANCH  21  23
TORSDOF 2
ENDMDL
MODEL 2
REMARK VINA RESULT:      -9.2      3.736      7.115
REMARK  2 active torsions:
REMARK  status: ('A' for Active; 'I' for Inactive)
REMARK    1  A    between atoms: C_21  and  C_22 
REMARK    2  A    between atoms: C_25  and  N_26 
ROOT
HETATM    1  O   UNL     1      11.275  19.245 -29.786  1.00  0.00    -0.259 OA
HETATM    2  C   UNL     1      12.289  19.735 -30.234  1.00  0.00     0.299 C 
HETATM    3  O   UNL     1      12.645  21.065 -30.017  1.00  0.00    -0.274 OA
HETATM    4  C   UNL     1      13.354  21.659 -31.063  1.00  0.00     0.092 C 
HETATM    5  C   UNL     1      13.079  22.997 -31.328  1.00  0.00     0.038 C 
HETATM    6  C   UNL     1      13.255  23.446 -32.630  1.00  0.00     0.003 C 
HETATM    7  C   UNL     1      13.997  22.684 -33.532  1.00  0.00     0.001 C 
HETATM    8  C   UNL     1      14.531  21.434 -33.134  1.00  0.00     0.017 C 
HETATM    9  C   UNL     1      14.130  20.885 -31.932  1.00  0.00     0.028 C 
HETATM   10  C   UNL     1      14.356  19.484 -31.559  1.00  0.00     0.087 C 
HETATM   11  N   UNL     1      15.496  18.813 -31.941  1.00  0.00    -0.223 NA
HETATM   12  C   UNL     1      15.632  17.633 -31.434  1.00  0.00     0.175 A 
HETATM   13  S   UNL     1      17.098  16.667 -31.648  1.00  0.00    -0.050 SA
HETATM   14  C   UNL     1      16.380  15.321 -30.709  1.00  0.00     0.035 A 
HETATM   15  C   UNL     1      16.929  14.075 -30.431  1.00  0.00     0.021 A 
HETATM   16  C   UNL     1      16.153  13.144 -29.737  1.00  0.00     0.002 A 
HETATM   17  C   UNL     1      14.863  13.466 -29.319  1.00  0.00     0.002 A 
HETATM   18  C   UNL     1      14.327  14.734 -29.578  1.00  0.00     0.031 A 
HETATM   19  C   UNL     1      15.084  15.662 -30.289  1.00  0.00     0.055 A 
HETATM   20  N   UNL     1      14.701  16.946 -30.672  1.00  0.00    -0.311 N 
HETATM   21  C   UNL     1      13.353  17.470 -30.506  1.00  0.00     0.167 C 
HETATM   22  C   UNL     1      13.369  18.925 -30.841  1.00  0.00     0.075 C 
ENDROOT
BRANCH  21  23
HETATM   23  C   UNL     1      12.365  16.678 -31.368  1.00  0.00    -0.030 A 
HETATM   24  C   UNL     1      12.482  16.738 -32.766  1.00  0.00     0.012 A 
HETATM   25  C   UNL     1      11.517  16.154 -33.599  1.00  0.00     0.037 A 
HETATM   26  C   UNL     1      10.441  15.463 -33.015  1.00  0.00     0.102 A 
HETATM   27  C   UNL     1      10.345  15.332 -31.618  1.00  0.00     0.037 A 
HETATM   28  C   UNL     1      11.308  15.934 -30.812  1.00  0.00     0.012 A 
BRANCH  26  29
HETATM   29  N   UNL     1       9.390  14.894 -33.878  1.00  0.00    -0.116 N 
HETATM   30  O   UNL     1       9.318  13.655 -33.953  1.00  0.00    -0.532 OA
HETATM   31  O   UNL     1       8.657  15.684 -34.478  1.00  0.00    -0.532 OA
ENDBRANCH  26  29
ENDBRANCH  21  23
TORSDOF 2
ENDMDL
MODEL 3
REMARK VINA RESULT:      -9.2      3.193      6.562
REMARK  2 active torsions:
REMARK  status: ('A' for Active; 'I' for Inactive)
REMARK    1  A    between atoms: C_21  and  C_22 
REMARK    2  A    between atoms: C_25  and  N_26 
ROOT
HETATM    1  O   UNL     1      13.176  17.924 -33.607  1.00  0.00    -0.259 OA
HETATM    2  C   UNL     1      12.095  17.615 -34.061  1.00  0.00     0.299 C 
HETATM    3  O   UNL     1      11.895  17.332 -35.412  1.00  0.00    -0.274 OA
HETATM    4  C   UNL     1      10.634  17.678 -35.901  1.00  0.00     0.092 C 
HETATM    5  C   UNL     1      10.580  18.173 -37.200  1.00  0.00     0.038 C 
HETATM    6  C   UNL     1       9.550  19.052 -37.512  1.00  0.00     0.003 C 
HETATM    7  C   UNL     1       8.444  19.151 -36.668  1.00  0.00     0.001 C 
HETATM    8  C   UNL     1       8.391  18.391 -35.475  1.00  0.00     0.017 C 
HETATM    9  C   UNL     1       9.525  17.728 -35.051  1.00  0.00     0.028 C 
HETATM   10  C   UNL     1       9.692  17.180 -33.699  1.00  0.00     0.087 C 
HETATM   11  N   UNL     1       8.633  16.637 -33.007  1.00  0.00    -0.223 NA
HETATM   12  C   UNL     1       8.944  16.070 -31.889  1.00  0.00     0.175 A 
HETATM   13  S   UNL     1       7.774  15.158 -30.926  1.00  0.00    -0.050 SA
HETATM   14  C   UNL     1       9.016  14.832 -29.677  1.00  0.00     0.035 A 
HETATM   15  C   UNL     1       8.871  14.151 -28.475  1.00  0.00     0.021 A 
HETATM   16  C   UNL     1       9.966  14.080 -27.612  1.00  0.00     0.002 A 
HETATM   17  C   UNL     1      11.182  14.667 -27.958  1.00  0.00     0.002 A 
HETATM   18  C   UNL     1      11.328  15.328 -29.185  1.00  0.00     0.031 A 
HETATM   19  C   UNL     1      10.236  15.423 -30.043  1.00  0.00     0.055 A 
HETATM   20  N   UNL     1      10.185  16.074 -31.274  1.00  0.00    -0.311 N 
HETATM   21  C   UNL     1      11.263  16.903 -31.794  1.00  0.00     0.167 C 
HETATM   22  C   UNL     1      10.938  17.266 -33.206  1.00  0.00     0.075 C 
ENDROOT
BRANCH  21  23
HETATM   23  C   UNL     1      11.466  18.132 -30.903  1.00  0.00    -0.030 A 
HETATM   24  C   UNL     1      10.367  18.959 -30.624  1.00  0.00     0.012 A 
HETATM   25  C   UNL     1      10.528  20.171 -29.938  1.00  0.00     0.037 A 
HETATM   26  C   UNL     1      11.810  20.535 -29.491  1.00  0.00     0.102 A 
HETATM   27  C   UNL     1      12.912  19.687 -29.700  1.00  0.00     0.037 A 
HETATM   28  C   UNL     1      12.728  18.495 -30.396  1.00  0.00     0.012 A 
BRANCH  26  29
HETATM   29  N   UNL     1      12.003  21.834 -28.820  1.00  0.00    -0.116 N 
HETATM   30  O   UNL     1      12.919  21.916 -27.983  1.00  0.00    -0.532 OA
HETATM   31  O   UNL     1      11.237  22.752 -29.125  1.00  0.00    -0.532 OA
ENDBRANCH  26  29
ENDBRANCH  21  23
TORSDOF 2
ENDMDL
MODEL 4
REMARK VINA RESULT:      -9.0      3.050      4.315
REMARK  2 active torsions:
REMARK  status: ('A' for Active; 'I' for Inactive)
REMARK    1  A    between atoms: C_21  and  C_22 
REMARK    2  A    between atoms: C_25  and  N_26 
ROOT
HETATM    1  O   UNL     1      11.131  16.702 -28.536  1.00  0.00    -0.259 OA
HETATM    2  C   UNL     1      11.762  16.143 -29.406  1.00  0.00     0.299 C 
HETATM    3  O   UNL     1      12.121  14.797 -29.334  1.00  0.00    -0.274 OA
HETATM    4  C   UNL     1      13.334  14.482 -29.950  1.00  0.00     0.092 C 
HETATM    5  C   UNL     1      14.121  13.518 -29.329  1.00  0.00     0.038 C 
HETATM    6  C   UNL     1      15.496  13.594 -29.510  1.00  0.00     0.003 C 
HETATM    7  C   UNL     1      16.017  14.381 -30.536  1.00  0.00     0.001 C 
HETATM    8  C   UNL     1      15.150  15.135 -31.362  1.00  0.00     0.017 C 
HETATM    9  C   UNL     1      13.821  15.254 -31.009  1.00  0.00     0.028 C 
HETATM   10  C   UNL     1      12.908  16.246 -31.590  1.00  0.00     0.087 C 
HETATM   11  N   UNL     1      13.002  16.623 -32.911  1.00  0.00    -0.223 NA
HETATM   12  C   UNL     1      12.056  17.398 -33.327  1.00  0.00     0.175 A 
HETATM   13  S   UNL     1      11.882  17.862 -35.025  1.00  0.00    -0.050 SA
HETATM   14  C   UNL     1      10.456  18.872 -34.631  1.00  0.00     0.035 A 
HETATM   15  C   UNL     1       9.701  19.666 -35.484  1.00  0.00     0.021 A 
HETATM   16  C   UNL     1       8.669  20.434 -34.941  1.00  0.00     0.002 A 
HETATM   17  C   UNL     1       8.394  20.391 -33.575  1.00  0.00     0.002 A 
HETATM   18  C   UNL     1       9.143  19.565 -32.726  1.00  0.00     0.031 A 
HETATM   19  C   UNL     1      10.188  18.813 -33.253  1.00  0.00     0.055 A 
HETATM   20  N   UNL     1      11.059  17.975 -32.558  1.00  0.00    -0.311 N 
HETATM   21  C   UNL     1      11.097  17.876 -31.107  1.00  0.00     0.167 C 
HETATM   22  C   UNL     1      12.003  16.748 -30.735  1.00  0.00     0.075 C 
ENDROOT
BRANCH  21  23
HETATM   23  C   UNL     1      11.535  19.209 -30.493  1.00  0.00    -0.030 A 
HETATM   24  C   UNL     1      10.633  19.912 -29.679  1.00  0.00     0.012 A 
HETATM   25  C   UNL     1      10.929  21.202 -29.214  1.00  0.00     0.037 A 
HETATM   26  C   UNL     1      12.169  21.775 -29.542  1.00  0.00     0.102 A 
HETATM   27  C   UNL     1      13.115  21.059 -30.299  1.00  0.00     0.037 A 
HETATM   28  C   UNL     1      12.791  19.785 -30.760  1.00  0.00     0.012 A 
BRANCH  26  29
HETATM   29  N   UNL     1      12.470  23.152 -29.109  1.00  0.00    -0.116 N 
HETATM   30  O   UNL     1      13.622  23.388 -28.707  1.00  0.00    -0.532 OA
HETATM   31  O   UNL     1      11.555  23.978 -29.164  1.00  0.00    -0.532 OA
ENDBRANCH  26  29
ENDBRANCH  21  23
TORSDOF 2
ENDMDL
MODEL 5
REMARK VINA RESULT:      -8.2      3.112      7.162
REMARK  2 active torsions:
REMARK  status: ('A' for Active; 'I' for Inactive)
REMARK    1  A    between atoms: C_21  and  C_22 
REMARK    2  A    between atoms: C_25  and  N_26 
ROOT
HETATM    1  O   UNL     1      12.008  21.119 -31.874  1.00  0.00    -0.259 OA
HETATM    2  C   UNL     1      13.157  20.732 -31.868  1.00  0.00     0.299 C 
HETATM    3  O   UNL     1      14.241  21.589 -31.681  1.00  0.00    -0.274 OA
HETATM    4  C   UNL     1      15.406  21.212 -32.354  1.00  0.00     0.092 C 
HETATM    5  C   UNL     1      16.184  22.237 -32.882  1.00  0.00     0.038 C 
HETATM    6  C   UNL     1      16.950  21.953 -34.005  1.00  0.00     0.003 C 
HETATM    7  C   UNL     1      17.187  20.626 -34.364  1.00  0.00     0.001 C 
HETATM    8  C   UNL     1      16.612  19.574 -33.612  1.00  0.00     0.017 C 
HETATM    9  C   UNL     1      15.650  19.872 -32.667  1.00  0.00     0.028 C 
HETATM   10  C   UNL     1      14.766  18.870 -32.059  1.00  0.00     0.087 C 
HETATM   11  N   UNL     1      15.204  17.593 -31.790  1.00  0.00    -0.223 NA
HETATM   12  C   UNL     1      14.370  16.857 -31.132  1.00  0.00     0.175 A 
HETATM   13  S   UNL     1      14.791  15.248 -30.529  1.00  0.00    -0.050 SA
HETATM   14  C   UNL     1      13.143  15.039 -29.860  1.00  0.00     0.035 A 
HETATM   15  C   UNL     1      12.612  13.933 -29.208  1.00  0.00     0.021 A 
HETATM   16  C   UNL     1      11.266  13.962 -28.833  1.00  0.00     0.002 A 
HETATM   17  C   UNL     1      10.481  15.083 -29.095  1.00  0.00     0.002 A 
HETATM   18  C   UNL     1      11.032  16.205 -29.728  1.00  0.00     0.031 A 
HETATM   19  C   UNL     1      12.365  16.178 -30.125  1.00  0.00     0.055 A 
HETATM   20  N   UNL     1      13.065  17.177 -30.799  1.00  0.00    -0.311 N 
HETATM   21  C   UNL     1      12.441  18.378 -31.335  1.00  0.00     0.167 C 
HETATM   22  C   UNL     1      13.518  19.298 -31.806  1.00  0.00     0.075 C 
ENDROOT
BRANCH  21  23
HETATM   23  C   UNL     1      11.451  18.013 -32.445  1.00  0.00    -0.030 A 
HETATM   24  C   UNL     1      10.083  18.255 -32.243  1.00  0.00     0.012 A 
HETATM   25  C   UNL     1       9.124  17.807 -33.163  1.00  0.00     0.037 A 
HETATM   26  C   UNL     1       9.553  17.141 -34.324  1.00  0.00     0.102 A 
HETATM   27  C   UNL     1      10.924  16.950 -34.578  1.00  0.00     0.037 A 
HETATM   28  C   UNL     1      11.855  17.393 -33.642  1.00  0.00     0.012 A 
BRANCH  26  29
HETATM   29  N   UNL     1       8.553  16.613 -35.270  1.00  0.00    -0.116 N 
HETATM   30  O   UNL     1       8.376  15.383 -35.290  1.00  0.00    -0.532 OA
HETATM   31  O   UNL     1       7.965  17.426 -35.988  1.00  0.00    -0.532 OA
ENDBRANCH  26  29
ENDBRANCH  21  23
TORSDOF 2
ENDMDL
MODEL 6
REMARK VINA RESULT:      -8.0      3.045      4.171
REMARK  2 active torsions:
REMARK  status: ('A' for Active; 'I' for Inactive)
REMARK    1  A    between atoms: C_21  and  C_22 
REMARK    2  A    between atoms: C_25  and  N_26 
ROOT
HETATM    1  O   UNL     1      10.880  18.654 -33.169  1.00  0.00    -0.259 OA
HETATM    2  C   UNL     1      11.014  17.586 -32.611  1.00  0.00     0.299 C 
HETATM    3  O   UNL     1      10.182  16.495 -32.860  1.00  0.00    -0.274 OA
HETATM    4  C   UNL     1       9.974  15.657 -31.762  1.00  0.00     0.092 C 
HETATM    5  C   UNL     1       8.704  15.106 -31.626  1.00  0.00     0.038 C 
HETATM    6  C   UNL     1       8.268  14.800 -30.343  1.00  0.00     0.003 C 
HETATM    7  C   UNL     1       9.187  14.729 -29.297  1.00  0.00     0.001 C 
HETATM    8  C   UNL     1      10.554  15.010 -29.534  1.00  0.00     0.017 C 
HETATM    9  C   UNL     1      10.927  15.562 -30.743  1.00  0.00     0.028 C 
HETATM   10  C   UNL     1      12.234  16.182 -30.989  1.00  0.00     0.087 C 
HETATM   11  N   UNL     1      13.382  15.696 -30.405  1.00  0.00    -0.223 NA
HETATM   12  C   UNL     1      14.478  16.247 -30.811  1.00  0.00     0.175 A 
HETATM   13  S   UNL     1      16.075  15.661 -30.327  1.00  0.00    -0.050 SA
HETATM   14  C   UNL     1      16.867  16.960 -31.272  1.00  0.00     0.035 A 
HETATM   15  C   UNL     1      18.223  17.236 -31.387  1.00  0.00     0.021 A 
HETATM   16  C   UNL     1      18.616  18.356 -32.125  1.00  0.00     0.002 A 
HETATM   17  C   UNL     1      17.666  19.166 -32.744  1.00  0.00     0.002 A 
HETATM   18  C   UNL     1      16.301  18.864 -32.646  1.00  0.00     0.031 A 
HETATM   19  C   UNL     1      15.899  17.764 -31.895  1.00  0.00     0.055 A 
HETATM   20  N   UNL     1      14.593  17.339 -31.654  1.00  0.00    -0.311 N 
HETATM   21  C   UNL     1      13.413  18.097 -32.045  1.00  0.00     0.167 C 
HETATM   22  C   UNL     1      12.208  17.248 -31.805  1.00  0.00     0.075 C 
ENDROOT
BRANCH  21  23
HETATM   23  C   UNL     1      13.358  19.426 -31.286  1.00  0.00    -0.030 A 
HETATM   24  C   UNL     1      12.905  19.432 -29.957  1.00  0.00     0.012 A 
HETATM   25  C   UNL     1      12.696  20.635 -29.268  1.00  0.00     0.037 A 
HETATM   26  C   UNL     1      12.987  21.849 -29.914  1.00  0.00     0.102 A 
HETATM   27  C   UNL     1      13.508  21.861 -31.221  1.00  0.00     0.037 A 
HETATM   28  C   UNL     1      13.693  20.653 -31.889  1.00  0.00     0.012 A 
BRANCH  26  29
HETATM   29  N   UNL     1      12.718  23.122 -29.222  1.00  0.00    -0.116 N 
HETATM   30  O   UNL     1      13.664  23.660 -28.622  1.00  0.00    -0.532 OA
HETATM   31  O   UNL     1      11.567  23.566 -29.274  1.00  0.00    -0.532 OA
ENDBRANCH  26  29
ENDBRANCH  21  23
TORSDOF 2
ENDMDL
MODEL 7
REMARK VINA RESULT:      -7.9      3.656      5.359
REMARK  2 active torsions:
REMARK  status: ('A' for Active; 'I' for Inactive)
REMARK    1  A    between atoms: C_21  and  C_22 
REMARK    2  A    between atoms: C_25  and  N_26 
ROOT
HETATM    1  O   UNL     1      14.569  18.104 -32.646  1.00  0.00    -0.259 OA
HETATM    2  C   UNL     1      14.072  17.644 -31.641  1.00  0.00     0.299 C 
HETATM    3  O   UNL     1      14.807  16.938 -30.689  1.00  0.00    -0.274 OA
HETATM    4  C   UNL     1      14.097  15.933 -30.029  1.00  0.00     0.092 C 
HETATM    5  C   UNL     1      14.794  14.768 -29.725  1.00  0.00     0.038 C 
HETATM    6  C   UNL     1      14.070  13.585 -29.646  1.00  0.00     0.003 C 
HETATM    7  C   UNL     1      12.681  13.629 -29.534  1.00  0.00     0.001 C 
HETATM    8  C   UNL     1      12.007  14.874 -29.546  1.00  0.00     0.017 C 
HETATM    9  C   UNL     1      12.709  16.014 -29.885  1.00  0.00     0.028 C 
HETATM   10  C   UNL     1      12.072  17.289 -30.238  1.00  0.00     0.087 C 
HETATM   11  N   UNL     1      10.909  17.705 -29.629  1.00  0.00    -0.223 NA
HETATM   12  C   UNL     1      10.532  18.902 -29.933  1.00  0.00     0.175 A 
HETATM   13  S   UNL     1       9.170  19.702 -29.138  1.00  0.00    -0.050 SA
HETATM   14  C   UNL     1       9.387  21.153 -30.165  1.00  0.00     0.035 A 
HETATM   15  C   UNL     1       8.625  22.314 -30.187  1.00  0.00     0.021 A 
HETATM   16  C   UNL     1       8.933  23.296 -31.132  1.00  0.00     0.002 A 
HETATM   17  C   UNL     1       9.993  23.119 -32.019  1.00  0.00     0.002 A 
HETATM   18  C   UNL     1      10.774  21.957 -31.971  1.00  0.00     0.031 A 
HETATM   19  C   UNL     1      10.461  20.963 -31.049  1.00  0.00     0.055 A 
HETATM   20  N   UNL     1      11.096  19.733 -30.887  1.00  0.00    -0.311 N 
HETATM   21  C   UNL     1      12.122  19.229 -31.788  1.00  0.00     0.167 C 
HETATM   22  C   UNL     1      12.704  17.989 -31.194  1.00  0.00     0.075 C 
ENDROOT
BRANCH  21  23
HETATM   23  C   UNL     1      11.536  18.994 -33.184  1.00  0.00    -0.030 A 
HETATM   24  C   UNL     1      12.048  19.724 -34.268  1.00  0.00     0.012 A 
HETATM   25  C   UNL     1      11.450  19.655 -35.535  1.00  0.00     0.037 A 
HETATM   26  C   UNL     1      10.345  18.806 -35.721  1.00  0.00     0.102 A 
HETATM   27  C   UNL     1       9.861  18.015 -34.664  1.00  0.00     0.037 A 
HETATM   28  C   UNL     1      10.463  18.112 -33.412  1.00  0.00     0.012 A 
BRANCH  26  29
HETATM   29  N   UNL     1       9.672  18.768 -37.032  1.00  0.00    -0.116 N 
HETATM   30  O   UNL     1      10.300  18.275 -37.985  1.00  0.00    -0.532 OA
HETATM   31  O   UNL     1       8.533  19.237 -37.100  1.00  0.00    -0.532 OA
ENDBRANCH  26  29
ENDBRANCH  21  23
TORSDOF 2
ENDMDL
MODEL 8
REMARK VINA RESULT:      -7.7     24.513     28.380
REMARK  2 active torsions:
REMARK  status: ('A' for Active; 'I' for Inactive)
REMARK    1  A    between atoms: C_21  and  C_22 
REMARK    2  A    between atoms: C_25  and  N_26 
ROOT
HETATM    1  O   UNL     1      -3.551  -7.091 -24.096  1.00  0.00    -0.259 OA
HETATM    2  C   UNL     1      -3.426  -7.265 -25.289  1.00  0.00     0.299 C 
HETATM    3  O   UNL     1      -4.513  -7.353 -26.158  1.00  0.00    -0.274 OA
HETATM    4  C   UNL     1      -4.319  -8.197 -27.254  1.00  0.00     0.092 C 
HETATM    5  C   UNL     1      -5.417  -8.941 -27.674  1.00  0.00     0.038 C 
HETATM    6  C   UNL     1      -5.171 -10.160 -28.294  1.00  0.00     0.003 C 
HETATM    7  C   UNL     1      -3.893 -10.447 -28.774  1.00  0.00     0.001 C 
HETATM    8  C   UNL     1      -2.841  -9.518 -28.591  1.00  0.00     0.017 C 
HETATM    9  C   UNL     1      -3.036  -8.440 -27.752  1.00  0.00     0.028 C 
HETATM   10  C   UNL     1      -1.948  -7.599 -27.237  1.00  0.00     0.087 C 
HETATM   11  N   UNL     1      -0.838  -7.313 -28.000  1.00  0.00    -0.223 NA
HETATM   12  C   UNL     1      -0.024  -6.455 -27.480  1.00  0.00     0.175 A 
HETATM   13  S   UNL     1       1.370  -5.811 -28.358  1.00  0.00    -0.050 SA
HETATM   14  C   UNL     1       1.848  -4.833 -26.936  1.00  0.00     0.035 A 
HETATM   15  C   UNL     1       2.955  -4.007 -26.791  1.00  0.00     0.021 A 
HETATM   16  C   UNL     1       3.174  -3.393 -25.556  1.00  0.00     0.002 A 
HETATM   17  C   UNL     1       2.290  -3.595 -24.497  1.00  0.00     0.002 A 
HETATM   18  C   UNL     1       1.160  -4.408 -24.660  1.00  0.00     0.031 A 
HETATM   19  C   UNL     1       0.946  -5.042 -25.880  1.00  0.00     0.055 A 
HETATM   20  N   UNL     1      -0.092  -5.913 -26.207  1.00  0.00    -0.311 N 
HETATM   21  C   UNL     1      -1.055  -6.420 -25.241  1.00  0.00     0.167 C 
HETATM   22  C   UNL     1      -2.123  -7.156 -25.982  1.00  0.00     0.075 C 
ENDROOT
BRANCH  21  23
HETATM   23  C   UNL     1      -0.353  -7.294 -24.198  1.00  0.00    -0.030 A 
HETATM   24  C   UNL     1      -0.420  -6.926 -22.845  1.00  0.00     0.012 A 
HETATM   25  C   UNL     1       0.325  -7.606 -21.871  1.00  0.00     0.037 A 
HETATM   26  C   UNL     1       1.117  -8.700 -22.261  1.00  0.00     0.102 A 
HETATM   27  C   UNL     1       1.143  -9.127 -23.601  1.00  0.00     0.037 A 
HETATM   28  C   UNL     1       0.406  -8.426 -24.551  1.00  0.00     0.012 A 
BRANCH  26  29
HETATM   29  N   UNL     1       1.950  -9.387 -21.257  1.00  0.00    -0.116 N 
HETATM   30  O   UNL     1       1.424  -9.657 -20.163  1.00  0.00    -0.532 OA
HETATM   31  O   UNL     1       3.118  -9.641 -21.563  1.00  0.00    -0.532 OA
ENDBRANCH  26  29
ENDBRANCH  21  23
TORSDOF 2
ENDMDL
MODEL 9
REMARK VINA RESULT:      -7.6      3.882      5.573
REMARK  2 active torsions:
REMARK  status: ('A' for Active; 'I' for Inactive)
REMARK    1  A    between atoms: C_21  and  C_22 
REMARK    2  A    between atoms: C_25  and  N_26 
ROOT
HETATM    1  O   UNL     1      12.066  19.653 -29.611  1.00  0.00    -0.259 OA
HETATM    2  C   UNL     1      11.626  18.617 -30.060  1.00  0.00     0.299 C 
HETATM    3  O   UNL     1      10.839  17.742 -29.311  1.00  0.00    -0.274 OA
HETATM    4  C   UNL     1      10.990  16.393 -29.640  1.00  0.00     0.092 C 
HETATM    5  C   UNL     1      10.938  15.482 -28.590  1.00  0.00     0.038 C 
HETATM    6  C   UNL     1      11.644  14.294 -28.732  1.00  0.00     0.003 C 
HETATM    7  C   UNL     1      12.087  13.898 -29.993  1.00  0.00     0.001 C 
HETATM    8  C   UNL     1      11.856  14.725 -31.119  1.00  0.00     0.017 C 
HETATM    9  C   UNL     1      11.391  16.010 -30.923  1.00  0.00     0.028 C 
HETATM   10  C   UNL     1      11.413  17.052 -31.957  1.00  0.00     0.087 C 
HETATM   11  N   UNL     1      11.206  16.752 -33.285  1.00  0.00    -0.223 NA
HETATM   12  C   UNL     1      11.116  17.776 -34.068  1.00  0.00     0.175 A 
HETATM   13  S   UNL     1      10.678  17.632 -35.776  1.00  0.00    -0.050 SA
HETATM   14  C   UNL     1      10.844  19.402 -35.994  1.00  0.00     0.035 A 
HETATM   15  C   UNL     1      10.691  20.144 -37.158  1.00  0.00     0.021 A 
HETATM   16  C   UNL     1      10.943  21.517 -37.112  1.00  0.00     0.002 A 
HETATM   17  C   UNL     1      11.324  22.130 -35.919  1.00  0.00     0.002 A 
HETATM   18  C   UNL     1      11.448  21.378 -34.743  1.00  0.00     0.031 A 
HETATM   19  C   UNL     1      11.221  20.006 -34.784  1.00  0.00     0.055 A 
HETATM   20  N   UNL     1      11.337  19.100 -33.730  1.00  0.00    -0.311 N 
HETATM   21  C   UNL     1      11.875  19.448 -32.423  1.00  0.00     0.167 C 
HETATM   22  C   UNL     1      11.661  18.291 -31.503  1.00  0.00     0.075 C 
ENDROOT
BRANCH  21  23
HETATM   23  C   UNL     1      13.351  19.841 -32.542  1.00  0.00    -0.030 A 
HETATM   24  C   UNL     1      14.282  18.871 -32.946  1.00  0.00     0.012 A 
HETATM   25  C   UNL     1      15.659  19.137 -32.929  1.00  0.00     0.037 A 
HETATM   26  C   UNL     1      16.101  20.413 -32.538  1.00  0.00     0.102 A 
HETATM   27  C   UNL     1      15.179  21.419 -32.197  1.00  0.00     0.037 A 
HETATM   28  C   UNL     1      13.818  21.126 -32.209  1.00  0.00     0.012 A 
BRANCH  26  29
HETATM   29  N   UNL     1      17.547  20.688 -32.461  1.00  0.00    -0.116 N 
HETATM   30  O   UNL     1      18.322  19.728 -32.613  1.00  0.00    -0.532 OA
HETATM   31  O   UNL     1      17.894  21.851 -32.239  1.00  0.00    -0.532 OA
ENDBRANCH  26  29
ENDBRANCH  21  23
TORSDOF 2
ENDMDL
