MODEL 1
REMARK VINA RESULT:     -11.1      0.000      0.000
REMARK  2 active torsions:
REMARK  status: ('A' for Active; 'I' for Inactive)
REMARK    1  A    between atoms: C_21  and  C_22 
REMARK    2  A    between atoms: C_26  and  O_27 
ROOT
HETATM    1  O   UNL     1      12.184  13.123 -30.768  1.00  0.00    -0.259 OA
HETATM    2  C   UNL     1      12.971  13.867 -30.196  1.00  0.00     0.299 C 
HETATM    3  O   UNL     1      13.893  13.452 -29.248  1.00  0.00    -0.274 OA
HETATM    4  C   UNL     1      15.150  14.015 -29.515  1.00  0.00     0.092 C 
HETATM    5  C   UNL     1      16.243  13.189 -29.325  1.00  0.00     0.038 C 
HETATM    6  C   UNL     1      17.326  13.376 -30.167  1.00  0.00     0.003 C 
HETATM    7  C   UNL     1      17.433  14.559 -30.904  1.00  0.00     0.001 C 
HETATM    8  C   UNL     1      16.453  15.557 -30.796  1.00  0.00     0.017 C 
HETATM    9  C   UNL     1      15.253  15.250 -30.163  1.00  0.00     0.028 C 
HETATM   10  C   UNL     1      14.032  16.061 -30.205  1.00  0.00     0.087 A 
HETATM   11  N   UNL     1      14.066  17.437 -30.113  1.00  0.00    -0.223 NA
HETATM   12  C   UNL     1      12.896  17.998 -30.052  1.00  0.00     0.175 A 
HETATM   13  S   UNL     1      12.723  19.762 -29.885  1.00  0.00    -0.050 SA
HETATM   14  C   UNL     1      10.944  19.608 -29.947  1.00  0.00     0.035 A 
HETATM   15  C   UNL     1      10.002  20.622 -29.874  1.00  0.00     0.021 A 
HETATM   16  C   UNL     1       8.651  20.282 -29.980  1.00  0.00     0.002 A 
HETATM   17  C   UNL     1       8.263  18.953 -30.171  1.00  0.00     0.002 A 
HETATM   18  C   UNL     1       9.224  17.942 -30.237  1.00  0.00     0.031 A 
HETATM   19  C   UNL     1      10.573  18.262 -30.102  1.00  0.00     0.055 A 
HETATM   20  N   UNL     1      11.658  17.386 -30.102  1.00  0.00    -0.311 N 
HETATM   21  C   UNL     1      11.537  15.941 -30.198  1.00  0.00     0.167 A 
HETATM   22  C   UNL     1      12.898  15.342 -30.258  1.00  0.00     0.075 A 
ENDROOT
BRANCH  21  23
HETATM   23  C   UNL     1      10.778  15.369 -29.006  1.00  0.00    -0.028 A 
HETATM   24  C   UNL     1      11.189  15.602 -27.681  1.00  0.00     0.010 A 
HETATM   25  C   UNL     1      10.544  14.963 -26.622  1.00  0.00     0.003 A 
HETATM   26  C   UNL     1       9.475  14.097 -26.872  1.00  0.00     0.036 A 
HETATM   27  C   UNL     1       9.055  13.868 -28.179  1.00  0.00     0.066 A 
HETATM   28  C   UNL     1       9.702  14.492 -29.242  1.00  0.00     0.046 A 
BRANCH  27  29
HETATM   29  O   UNL     1       8.031  13.040 -28.493  1.00  0.00    -0.361 OA
HETATM   30  H   UNL     1       7.677  12.660 -27.666  1.00  0.00     0.217 HD
ENDBRANCH  27  29
ENDBRANCH  21  23
TORSDOF 2
ENDMDL
MODEL 2
REMARK VINA RESULT:      -9.0      3.311      5.794
REMARK  2 active torsions:
REMARK  status: ('A' for Active; 'I' for Inactive)
REMARK    1  A    between atoms: C_21  and  C_22 
REMARK    2  A    between atoms: C_26  and  O_27 
ROOT
HETATM    1  O   UNL     1      10.973  14.355 -32.649  1.00  0.00    -0.259 OA
HETATM    2  C   UNL     1      10.552  15.064 -31.744  1.00  0.00     0.299 C 
HETATM    3  O   UNL     1       9.270  14.988 -31.221  1.00  0.00    -0.274 OA
HETATM    4  C   UNL     1       9.317  14.996 -29.819  1.00  0.00     0.092 C 
HETATM    5  C   UNL     1       8.437  14.148 -29.172  1.00  0.00     0.038 C 
HETATM    6  C   UNL     1       8.862  13.593 -27.977  1.00  0.00     0.003 C 
HETATM    7  C   UNL     1       9.954  14.150 -27.305  1.00  0.00     0.001 C 
HETATM    8  C   UNL     1      10.621  15.265 -27.833  1.00  0.00     0.017 C 
HETATM    9  C   UNL     1      10.359  15.642 -29.146  1.00  0.00     0.028 C 
HETATM   10  C   UNL     1      11.152  16.588 -29.939  1.00  0.00     0.087 A 
HETATM   11  N   UNL     1      11.658  17.752 -29.397  1.00  0.00    -0.223 NA
HETATM   12  C   UNL     1      12.238  18.533 -30.257  1.00  0.00     0.175 A 
HETATM   13  S   UNL     1      12.917  20.104 -29.767  1.00  0.00    -0.050 SA
HETATM   14  C   UNL     1      13.497  20.390 -31.433  1.00  0.00     0.035 A 
HETATM   15  C   UNL     1      14.188  21.490 -31.914  1.00  0.00     0.021 A 
HETATM   16  C   UNL     1      14.581  21.493 -33.254  1.00  0.00     0.002 A 
HETATM   17  C   UNL     1      14.297  20.405 -34.083  1.00  0.00     0.002 A 
HETATM   18  C   UNL     1      13.595  19.306 -33.586  1.00  0.00     0.031 A 
HETATM   19  C   UNL     1      13.170  19.302 -32.259  1.00  0.00     0.055 A 
HETATM   20  N   UNL     1      12.430  18.315 -31.608  1.00  0.00    -0.311 N 
HETATM   21  C   UNL     1      11.927  17.114 -32.255  1.00  0.00     0.167 A 
HETATM   22  C   UNL     1      11.264  16.255 -31.236  1.00  0.00     0.075 A 
ENDROOT
BRANCH  21  23
HETATM   23  C   UNL     1      10.934  17.456 -33.360  1.00  0.00    -0.028 A 
HETATM   24  C   UNL     1      11.111  17.010 -34.682  1.00  0.00     0.010 A 
HETATM   25  C   UNL     1      10.250  17.443 -35.691  1.00  0.00     0.003 A 
HETATM   26  C   UNL     1       9.197  18.312 -35.389  1.00  0.00     0.036 A 
HETATM   27  C   UNL     1       9.009  18.750 -34.082  1.00  0.00     0.066 A 
HETATM   28  C   UNL     1       9.872  18.333 -33.072  1.00  0.00     0.046 A 
BRANCH  27  29
HETATM   29  O   UNL     1       8.014  19.594 -33.721  1.00  0.00    -0.361 OA
HETATM   30  H   UNL     1       8.415  20.429 -33.412  1.00  0.00     0.217 HD
ENDBRANCH  27  29
ENDBRANCH  21  23
TORSDOF 2
ENDMDL
MODEL 3
REMARK VINA RESULT:      -8.7      2.903      6.371
REMARK  2 active torsions:
REMARK  status: ('A' for Active; 'I' for Inactive)
REMARK    1  A    between atoms: C_21  and  C_22 
REMARK    2  A    between atoms: C_26  and  O_27 
ROOT
HETATM    1  O   UNL     1      10.746  18.944 -29.633  1.00  0.00    -0.259 OA
HETATM    2  C   UNL     1      11.440  19.155 -30.619  1.00  0.00     0.299 C 
HETATM    3  O   UNL     1      10.971  19.696 -31.805  1.00  0.00    -0.274 OA
HETATM    4  C   UNL     1      11.836  20.706 -32.253  1.00  0.00     0.092 C 
HETATM    5  C   UNL     1      11.239  21.830 -32.794  1.00  0.00     0.038 C 
HETATM    6  C   UNL     1      11.882  23.040 -32.599  1.00  0.00     0.003 C 
HETATM    7  C   UNL     1      13.222  23.055 -32.202  1.00  0.00     0.001 C 
HETATM    8  C   UNL     1      13.919  21.854 -32.001  1.00  0.00     0.017 C 
HETATM    9  C   UNL     1      13.199  20.665 -31.940  1.00  0.00     0.028 C 
HETATM   10  C   UNL     1      13.715  19.377 -31.467  1.00  0.00     0.087 A 
HETATM   11  N   UNL     1      14.982  18.935 -31.787  1.00  0.00    -0.223 NA
HETATM   12  C   UNL     1      15.244  17.727 -31.386  1.00  0.00     0.175 A 
HETATM   13  S   UNL     1      16.808  16.955 -31.739  1.00  0.00    -0.050 SA
HETATM   14  C   UNL     1      16.312  15.499 -30.829  1.00  0.00     0.035 A 
HETATM   15  C   UNL     1      17.042  14.341 -30.618  1.00  0.00     0.021 A 
HETATM   16  C   UNL     1      16.472  13.330 -29.839  1.00  0.00     0.002 A 
HETATM   17  C   UNL     1      15.205  13.494 -29.274  1.00  0.00     0.002 A 
HETATM   18  C   UNL     1      14.480  14.664 -29.501  1.00  0.00     0.031 A 
HETATM   19  C   UNL     1      15.021  15.668 -30.301  1.00  0.00     0.055 A 
HETATM   20  N   UNL     1      14.429  16.877 -30.663  1.00  0.00    -0.311 N 
HETATM   21  C   UNL     1      13.080  17.268 -30.287  1.00  0.00     0.167 A 
HETATM   22  C   UNL     1      12.821  18.651 -30.773  1.00  0.00     0.075 A 
ENDROOT
BRANCH  21  23
HETATM   23  C   UNL     1      12.044  16.318 -30.875  1.00  0.00    -0.028 A 
HETATM   24  C   UNL     1      11.929  16.107 -32.261  1.00  0.00     0.010 A 
HETATM   25  C   UNL     1      10.890  15.326 -32.769  1.00  0.00     0.003 A 
HETATM   26  C   UNL     1       9.967  14.736 -31.902  1.00  0.00     0.036 A 
HETATM   27  C   UNL     1      10.079  14.930 -30.528  1.00  0.00     0.066 A 
HETATM   28  C   UNL     1      11.104  15.719 -30.014  1.00  0.00     0.046 A 
BRANCH  27  29
HETATM   29  O   UNL     1       9.218  14.393 -29.632  1.00  0.00    -0.361 OA
HETATM   30  H   UNL     1       9.582  14.527 -28.736  1.00  0.00     0.217 HD
ENDBRANCH  27  29
ENDBRANCH  21  23
TORSDOF 2
ENDMDL
MODEL 4
REMARK VINA RESULT:      -8.6      3.071      3.954
REMARK  2 active torsions:
REMARK  status: ('A' for Active; 'I' for Inactive)
REMARK    1  A    between atoms: C_21  and  C_22 
REMARK    2  A    between atoms: C_26  and  O_27 
ROOT
HETATM    1  O   UNL     1      11.541  14.567 -32.231  1.00  0.00    -0.259 OA
HETATM    2  C   UNL     1      12.388  15.169 -31.584  1.00  0.00     0.299 C 
HETATM    3  O   UNL     1      12.682  14.917 -30.253  1.00  0.00    -0.274 OA
HETATM    4  C   UNL     1      14.071  14.848 -30.068  1.00  0.00     0.092 C 
HETATM    5  C   UNL     1      14.526  13.869 -29.204  1.00  0.00     0.038 C 
HETATM    6  C   UNL     1      15.754  13.297 -29.492  1.00  0.00     0.003 C 
HETATM    7  C   UNL     1      16.622  13.936 -30.382  1.00  0.00     0.001 C 
HETATM    8  C   UNL     1      16.258  15.149 -30.985  1.00  0.00     0.017 C 
HETATM    9  C   UNL     1      14.935  15.569 -30.898  1.00  0.00     0.028 C 
HETATM   10  C   UNL     1      14.326  16.644 -31.688  1.00  0.00     0.087 A 
HETATM   11  N   UNL     1      14.990  17.824 -31.952  1.00  0.00    -0.223 NA
HETATM   12  C   UNL     1      14.272  18.716 -32.566  1.00  0.00     0.175 A 
HETATM   13  S   UNL     1      14.930  20.323 -32.957  1.00  0.00    -0.050 SA
HETATM   14  C   UNL     1      13.399  20.770 -33.763  1.00  0.00     0.035 A 
HETATM   15  C   UNL     1      13.085  21.968 -34.384  1.00  0.00     0.021 A 
HETATM   16  C   UNL     1      11.832  22.094 -34.988  1.00  0.00     0.002 A 
HETATM   17  C   UNL     1      10.926  21.031 -34.979  1.00  0.00     0.002 A 
HETATM   18  C   UNL     1      11.255  19.832 -34.345  1.00  0.00     0.031 A 
HETATM   19  C   UNL     1      12.488  19.702 -33.712  1.00  0.00     0.055 A 
HETATM   20  N   UNL     1      12.966  18.601 -33.002  1.00  0.00    -0.311 N 
HETATM   21  C   UNL     1      12.198  17.390 -32.763  1.00  0.00     0.167 A 
HETATM   22  C   UNL     1      13.055  16.402 -32.052  1.00  0.00     0.075 A 
ENDROOT
BRANCH  21  23
HETATM   23  C   UNL     1      10.954  17.679 -31.931  1.00  0.00    -0.028 A 
HETATM   24  C   UNL     1       9.662  17.364 -32.389  1.00  0.00     0.010 A 
HETATM   25  C   UNL     1       8.541  17.754 -31.656  1.00  0.00     0.003 A 
HETATM   26  C   UNL     1       8.697  18.449 -30.453  1.00  0.00     0.036 A 
HETATM   27  C   UNL     1       9.971  18.756 -29.987  1.00  0.00     0.066 A 
HETATM   28  C   UNL     1      11.094  18.381 -30.719  1.00  0.00     0.046 A 
BRANCH  27  29
HETATM   29  O   UNL     1      10.195  19.429 -28.833  1.00  0.00    -0.361 OA
HETATM   30  H   UNL     1       9.350  19.817 -28.533  1.00  0.00     0.217 HD
ENDBRANCH  27  29
ENDBRANCH  21  23
TORSDOF 2
ENDMDL
MODEL 5
REMARK VINA RESULT:      -8.4      4.039      6.445
REMARK  2 active torsions:
REMARK  status: ('A' for Active; 'I' for Inactive)
REMARK    1  A    between atoms: C_21  and  C_22 
REMARK    2  A    between atoms: C_26  and  O_27 
ROOT
HETATM    1  O   UNL     1      10.291  19.016 -28.988  1.00  0.00    -0.259 OA
HETATM    2  C   UNL     1      10.422  17.912 -29.501  1.00  0.00     0.299 C 
HETATM    3  O   UNL     1      11.293  16.935 -29.045  1.00  0.00    -0.274 OA
HETATM    4  C   UNL     1      10.642  15.694 -28.986  1.00  0.00     0.092 C 
HETATM    5  C   UNL     1      10.937  14.899 -27.893  1.00  0.00     0.038 C 
HETATM    6  C   UNL     1       9.920  14.093 -27.409  1.00  0.00     0.003 C 
HETATM    7  C   UNL     1       8.801  13.839 -28.206  1.00  0.00     0.001 C 
HETATM    8  C   UNL     1       8.699  14.395 -29.490  1.00  0.00     0.017 C 
HETATM    9  C   UNL     1       9.585  15.403 -29.855  1.00  0.00     0.028 C 
HETATM   10  C   UNL     1       9.452  16.276 -31.025  1.00  0.00     0.087 A 
HETATM   11  N   UNL     1       9.035  15.797 -32.250  1.00  0.00    -0.223 NA
HETATM   12  C   UNL     1       9.079  16.672 -33.209  1.00  0.00     0.175 A 
HETATM   13  S   UNL     1       8.625  16.241 -34.876  1.00  0.00    -0.050 SA
HETATM   14  C   UNL     1       8.911  17.924 -35.405  1.00  0.00     0.035 A 
HETATM   15  C   UNL     1       8.765  18.450 -36.678  1.00  0.00     0.021 A 
HETATM   16  C   UNL     1       9.008  19.812 -36.866  1.00  0.00     0.002 A 
HETATM   17  C   UNL     1       9.374  20.626 -35.791  1.00  0.00     0.002 A 
HETATM   18  C   UNL     1       9.523  20.081 -34.515  1.00  0.00     0.031 A 
HETATM   19  C   UNL     1       9.314  18.718 -34.318  1.00  0.00     0.055 A 
HETATM   20  N   UNL     1       9.453  18.000 -33.130  1.00  0.00    -0.311 N 
HETATM   21  C   UNL     1       9.905  18.581 -31.876  1.00  0.00     0.167 A 
HETATM   22  C   UNL     1       9.846  17.543 -30.811  1.00  0.00     0.075 A 
ENDROOT
BRANCH  21  23
HETATM   23  C   UNL     1      11.329  19.112 -31.994  1.00  0.00    -0.028 A 
HETATM   24  C   UNL     1      12.413  18.271 -32.302  1.00  0.00     0.010 A 
HETATM   25  C   UNL     1      13.717  18.769 -32.281  1.00  0.00     0.003 A 
HETATM   26  C   UNL     1      13.950  20.111 -31.966  1.00  0.00     0.036 A 
HETATM   27  C   UNL     1      12.882  20.952 -31.670  1.00  0.00     0.066 A 
HETATM   28  C   UNL     1      11.580  20.460 -31.676  1.00  0.00     0.046 A 
BRANCH  27  29
HETATM   29  O   UNL     1      13.036  22.259 -31.353  1.00  0.00    -0.361 OA
HETATM   30  H   UNL     1      12.376  22.777 -31.852  1.00  0.00     0.217 HD
ENDBRANCH  27  29
ENDBRANCH  21  23
TORSDOF 2
ENDMDL
MODEL 6
REMARK VINA RESULT:      -8.2      3.593      5.083
REMARK  2 active torsions:
REMARK  status: ('A' for Active; 'I' for Inactive)
REMARK    1  A    between atoms: C_21  and  C_22 
REMARK    2  A    between atoms: C_26  and  O_27 
ROOT
HETATM    1  O   UNL     1      12.179  15.826 -32.019  1.00  0.00    -0.259 OA
HETATM    2  C   UNL     1      13.190  16.128 -31.399  1.00  0.00     0.299 C 
HETATM    3  O   UNL     1      13.436  15.776 -30.081  1.00  0.00    -0.274 OA
HETATM    4  C   UNL     1      14.741  15.282 -29.946  1.00  0.00     0.092 C 
HETATM    5  C   UNL     1      14.901  14.196 -29.104  1.00  0.00     0.038 C 
HETATM    6  C   UNL     1      15.884  13.280 -29.439  1.00  0.00     0.003 C 
HETATM    7  C   UNL     1      16.877  13.634 -30.357  1.00  0.00     0.001 C 
HETATM    8  C   UNL     1      16.884  14.910 -30.940  1.00  0.00     0.017 C 
HETATM    9  C   UNL     1      15.758  15.716 -30.803  1.00  0.00     0.028 C 
HETATM   10  C   UNL     1      15.483  16.938 -31.565  1.00  0.00     0.087 A 
HETATM   11  N   UNL     1      16.470  17.861 -31.846  1.00  0.00    -0.223 NA
HETATM   12  C   UNL     1      16.041  18.940 -32.429  1.00  0.00     0.175 A 
HETATM   13  S   UNL     1      17.149  20.273 -32.835  1.00  0.00    -0.050 SA
HETATM   14  C   UNL     1      15.804  21.182 -33.584  1.00  0.00     0.035 A 
HETATM   15  C   UNL     1      15.854  22.428 -34.186  1.00  0.00     0.021 A 
HETATM   16  C   UNL     1      14.681  22.943 -34.744  1.00  0.00     0.002 A 
HETATM   17  C   UNL     1      13.492  22.210 -34.709  1.00  0.00     0.002 A 
HETATM   18  C   UNL     1      13.457  20.958 -34.093  1.00  0.00     0.031 A 
HETATM   19  C   UNL     1      14.610  20.445 -33.505  1.00  0.00     0.055 A 
HETATM   20  N   UNL     1      14.749  19.239 -32.819  1.00  0.00    -0.311 N 
HETATM   21  C   UNL     1      13.654  18.319 -32.559  1.00  0.00     0.167 A 
HETATM   22  C   UNL     1      14.188  17.104 -31.884  1.00  0.00     0.075 A 
ENDROOT
BRANCH  21  23
HETATM   23  C   UNL     1      12.587  18.963 -31.681  1.00  0.00    -0.028 A 
HETATM   24  C   UNL     1      11.257  19.110 -32.114  1.00  0.00     0.010 A 
HETATM   25  C   UNL     1      10.338  19.813 -31.335  1.00  0.00     0.003 A 
HETATM   26  C   UNL     1      10.731  20.364 -30.111  1.00  0.00     0.036 A 
HETATM   27  C   UNL     1      12.043  20.215 -29.671  1.00  0.00     0.066 A 
HETATM   28  C   UNL     1      12.969  19.526 -30.448  1.00  0.00     0.046 A 
BRANCH  27  29
HETATM   29  O   UNL     1      12.493  20.725 -28.500  1.00  0.00    -0.361 OA
HETATM   30  H   UNL     1      12.080  21.600 -28.366  1.00  0.00     0.217 HD
ENDBRANCH  27  29
ENDBRANCH  21  23
TORSDOF 2
ENDMDL
MODEL 7
REMARK VINA RESULT:      -8.2      2.889      6.428
REMARK  2 active torsions:
REMARK  status: ('A' for Active; 'I' for Inactive)
REMARK    1  A    between atoms: C_21  and  C_22 
REMARK    2  A    between atoms: C_26  and  O_27 
ROOT
HETATM    1  O   UNL     1       8.939  19.582 -29.377  1.00  0.00    -0.259 OA
HETATM    2  C   UNL     1       9.923  19.884 -30.039  1.00  0.00     0.299 C 
HETATM    3  O   UNL     1       9.908  20.772 -31.103  1.00  0.00    -0.274 OA
HETATM    4  C   UNL     1      10.978  21.673 -30.998  1.00  0.00     0.092 C 
HETATM    5  C   UNL     1      10.708  22.987 -31.336  1.00  0.00     0.038 C 
HETATM    6  C   UNL     1      11.393  23.969 -30.641  1.00  0.00     0.003 C 
HETATM    7  C   UNL     1      12.537  23.631 -29.914  1.00  0.00     0.001 C 
HETATM    8  C   UNL     1      12.997  22.306 -29.883  1.00  0.00     0.017 C 
HETATM    9  C   UNL     1      12.163  21.298 -30.357  1.00  0.00     0.028 C 
HETATM   10  C   UNL     1      12.358  19.860 -30.148  1.00  0.00     0.087 A 
HETATM   11  N   UNL     1      13.603  19.271 -30.231  1.00  0.00    -0.223 NA
HETATM   12  C   UNL     1      13.589  17.976 -30.134  1.00  0.00     0.175 A 
HETATM   13  S   UNL     1      15.088  17.023 -30.260  1.00  0.00    -0.050 SA
HETATM   14  C   UNL     1      14.173  15.516 -29.968  1.00  0.00     0.035 A 
HETATM   15  C   UNL     1      14.665  14.223 -29.907  1.00  0.00     0.021 A 
HETATM   16  C   UNL     1      13.772  13.185 -29.629  1.00  0.00     0.002 A 
HETATM   17  C   UNL     1      12.419  13.450 -29.402  1.00  0.00     0.002 A 
HETATM   18  C   UNL     1      11.938  14.758 -29.472  1.00  0.00     0.031 A 
HETATM   19  C   UNL     1      12.810  15.800 -29.779  1.00  0.00     0.055 A 
HETATM   20  N   UNL     1      12.500  17.151 -29.928  1.00  0.00    -0.311 N 
HETATM   21  C   UNL     1      11.154  17.693 -29.830  1.00  0.00     0.167 A 
HETATM   22  C   UNL     1      11.217  19.175 -29.955  1.00  0.00     0.075 A 
ENDROOT
BRANCH  21  23
HETATM   23  C   UNL     1      10.250  17.127 -30.919  1.00  0.00    -0.028 A 
HETATM   24  C   UNL     1      10.480  17.378 -32.283  1.00  0.00     0.010 A 
HETATM   25  C   UNL     1       9.563  16.947 -33.242  1.00  0.00     0.003 A 
HETATM   26  C   UNL     1       8.416  16.249 -32.852  1.00  0.00     0.036 A 
HETATM   27  C   UNL     1       8.185  15.987 -31.505  1.00  0.00     0.066 A 
HETATM   28  C   UNL     1       9.089  16.426 -30.541  1.00  0.00     0.046 A 
BRANCH  27  29
HETATM   29  O   UNL     1       7.095  15.322 -31.057  1.00  0.00    -0.361 OA
HETATM   30  H   UNL     1       6.652  14.906 -31.821  1.00  0.00     0.217 HD
ENDBRANCH  27  29
ENDBRANCH  21  23
TORSDOF 2
ENDMDL
