MODEL 1
REMARK VINA RESULT:      -8.7      0.000      0.000
REMARK  16 active torsions:
REMARK  status: ('A' for Active; 'I' for Inactive)
REMARK    1  A    between atoms: N_1  and  C_3 
REMARK    2  A    between atoms: C_8  and  O_14 
REMARK    3  A    between atoms: C_10  and  N_16 
REMARK    4  A    between atoms: C_12  and  C_17 
REMARK    5  A    between atoms: C_13  and  O_18 
REMARK    6  A    between atoms: C_17  and  O_19 
REMARK    7  A    between atoms: O_19  and  P_43 
REMARK    8  A    between atoms: O_20  and  C_21 
REMARK    9  A    between atoms: O_20  and  P_41 
REMARK   10  A    between atoms: C_21  and  C_22 
REMARK   11  A    between atoms: C_24  and  O_27 
REMARK   12  A    between atoms: C_25  and  N_28 
REMARK   13  A    between atoms: C_26  and  O_29 
REMARK   14  A    between atoms: C_32  and  C_35 
REMARK       I    between atoms: C_35  and  N_37 
REMARK   15  A    between atoms: O_38  and  P_43 
REMARK   16  A    between atoms: O_38  and  P_41 
ROOT
HETATM    1  N   UNL     1      10.793  15.374 -30.541  1.00  0.00    -0.294 N 
HETATM    2  C   UNL     1      10.212  14.817 -29.432  1.00  0.00     0.166 A 
HETATM    3  C   UNL     1      11.888  16.083 -30.121  1.00  0.00     0.214 A 
HETATM    4  C   UNL     1      10.941  15.316 -28.365  1.00  0.00     0.144 A 
HETATM    5  N   UNL     1       9.144  14.003 -29.371  1.00  0.00    -0.222 NA
HETATM    6  N   UNL     1      11.984  16.104 -28.805  1.00  0.00    -0.236 NA
HETATM    7  C   UNL     1      10.486  14.980 -27.079  1.00  0.00     0.135 A 
HETATM    8  C   UNL     1       8.816  13.732 -28.093  1.00  0.00     0.237 A 
HETATM    9  N   UNL     1       9.402  14.181 -26.960  1.00  0.00    -0.228 NA
ENDROOT
BRANCH   1  10
HETATM   10  C   UNL     1      10.253  15.311 -31.885  1.00  0.00     0.262 C 
HETATM   11  O   UNL     1      11.275  15.633 -32.858  1.00  0.00    -0.353 OA
HETATM   12  C   UNL     1      10.647  16.314 -33.981  1.00  0.00     0.180 C 
HETATM   13  C   UNL     1       9.145  16.357 -33.651  1.00  0.00     0.182 C 
HETATM   14  C   UNL     1       9.126  16.315 -32.129  1.00  0.00     0.198 C 
BRANCH  12  15
HETATM   15  C   UNL     1      11.231  17.726 -34.175  1.00  0.00     0.216 C 
BRANCH  15  16
HETATM   16  O   UNL     1      10.859  18.664 -33.177  1.00  0.00    -0.287 OA
BRANCH  16  17
HETATM   17  P   UNL     1      12.055  19.735 -32.531  1.00  0.00     0.417 P 
HETATM   18  O   UNL     1      13.025  18.900 -33.394  1.00  0.00    -0.624 OA
HETATM   19  O   UNL     1      13.251  20.805 -31.885  1.00  0.00    -0.624 OA
BRANCH  17  20
HETATM   20  O   UNL     1      11.838  19.032 -30.964  1.00  0.00    -0.180 OA
BRANCH  20  21
HETATM   21  P   UNL     1      12.162  20.221 -29.750  1.00  0.00     0.417 P 
HETATM   22  O   UNL     1      13.174  19.184 -29.160  1.00  0.00    -0.624 OA
HETATM   23  O   UNL     1      12.486  21.410 -28.535  1.00  0.00    -0.624 OA
BRANCH  21  24
HETATM   24  O   UNL     1      10.790  19.693 -28.912  1.00  0.00    -0.287 OA
BRANCH  24  25
HETATM   25  C   UNL     1       9.588  19.712 -29.749  1.00  0.00     0.216 C 
BRANCH  25  26
HETATM   26  C   UNL     1       8.435  20.695 -29.335  1.00  0.00     0.180 C 
HETATM   27  O   UNL     1       8.955  21.985 -28.981  1.00  0.00    -0.353 OA
HETATM   28  C   UNL     1       8.683  22.929 -29.972  1.00  0.00     0.259 C 
HETATM   29  C   UNL     1       7.991  22.191 -31.137  1.00  0.00     0.198 C 
HETATM   30  C   UNL     1       7.439  20.942 -30.463  1.00  0.00     0.182 C 
BRANCH  28  31
HETATM   31  N   UNL     1       9.956  23.571 -30.385  1.00  0.00    -0.337 N 
HETATM   32  C   UNL     1      10.688  24.341 -29.500  1.00  0.00     0.106 C 
HETATM   33  C   UNL     1      11.774  25.052 -29.882  1.00  0.00     0.028 C 
HETATM   34  C   UNL     1      12.162  25.080 -31.349  1.00  0.00     0.074 C 
HETATM   35  C   UNL     1      11.563  23.946 -32.132  1.00  0.00    -0.005 C 
HETATM   36  C   UNL     1      10.518  23.277 -31.631  1.00  0.00     0.089 C 
BRANCH  33  37
HETATM   37  C   UNL     1      12.685  25.718 -28.929  1.00  0.00     0.247 C 
HETATM   38  O   UNL     1      12.266  26.338 -27.956  1.00  0.00    -0.268 OA
HETATM   39  N   UNL     1      14.016  25.636 -29.160  1.00  0.00    -0.366 N 
HETATM   40  H   UNL     1      14.419  25.057 -29.881  1.00  0.00     0.159 HD
HETATM   41  H   UNL     1      14.630  26.125 -28.530  1.00  0.00     0.159 HD
ENDBRANCH  33  37
ENDBRANCH  28  31
BRANCH  29  42
HETATM   42  O   UNL     1       6.927  22.961 -31.738  1.00  0.00    -0.388 OA
HETATM   43  H   UNL     1       7.294  23.167 -32.629  1.00  0.00     0.210 HD
ENDBRANCH  29  42
BRANCH  30  44
HETATM   44  O   UNL     1       6.115  21.266 -29.946  1.00  0.00    -0.390 OA
HETATM   45  H   UNL     1       5.500  20.949 -30.646  1.00  0.00     0.210 HD
ENDBRANCH  30  44
ENDBRANCH  25  26
ENDBRANCH  24  25
ENDBRANCH  21  24
ENDBRANCH  20  21
ENDBRANCH  17  20
ENDBRANCH  16  17
ENDBRANCH  15  16
ENDBRANCH  12  15
BRANCH  13  46
HETATM   46  O   UNL     1       8.451  15.161 -34.075  1.00  0.00    -0.390 OA
HETATM   47  H   UNL     1       8.063  15.323 -34.955  1.00  0.00     0.210 HD
ENDBRANCH  13  46
BRANCH  14  48
HETATM   48  O   UNL     1       7.849  15.902 -31.646  1.00  0.00    -0.388 OA
HETATM   49  H   UNL     1       7.266  16.681 -31.766  1.00  0.00     0.210 HD
ENDBRANCH  14  48
ENDBRANCH   1  10
BRANCH   7  50
HETATM   50  N   UNL     1      11.053  15.487 -25.908  1.00  0.00    -0.285 NA
HETATM   51  H   UNL     1      11.295  16.467 -26.013  1.00  0.00     0.125 HD
HETATM   52  H   UNL     1      10.487  15.237 -25.108  1.00  0.00     0.125 HD
ENDBRANCH   7  50
TORSDOF 16
ENDMDL
MODEL 2
REMARK VINA RESULT:      -8.5      2.261      3.337
REMARK  16 active torsions:
REMARK  status: ('A' for Active; 'I' for Inactive)
REMARK    1  A    between atoms: N_1  and  C_3 
REMARK    2  A    between atoms: C_8  and  O_14 
REMARK    3  A    between atoms: C_10  and  N_16 
REMARK    4  A    between atoms: C_12  and  C_17 
REMARK    5  A    between atoms: C_13  and  O_18 
REMARK    6  A    between atoms: C_17  and  O_19 
REMARK    7  A    between atoms: O_19  and  P_43 
REMARK    8  A    between atoms: O_20  and  C_21 
REMARK    9  A    between atoms: O_20  and  P_41 
REMARK   10  A    between atoms: C_21  and  C_22 
REMARK   11  A    between atoms: C_24  and  O_27 
REMARK   12  A    between atoms: C_25  and  N_28 
REMARK   13  A    between atoms: C_26  and  O_29 
REMARK   14  A    between atoms: C_32  and  C_35 
REMARK       I    between atoms: C_35  and  N_37 
REMARK   15  A    between atoms: O_38  and  P_43 
REMARK   16  A    between atoms: O_38  and  P_41 
ROOT
HETATM    1  N   UNL     1      10.749  15.606 -30.548  1.00  0.00    -0.294 N 
HETATM    2  C   UNL     1      10.240  14.959 -29.452  1.00  0.00     0.166 A 
HETATM    3  C   UNL     1      11.783  16.397 -30.118  1.00  0.00     0.214 A 
HETATM    4  C   UNL     1      10.938  15.486 -28.377  1.00  0.00     0.144 A 
HETATM    5  N   UNL     1       9.252  14.050 -29.406  1.00  0.00    -0.222 NA
HETATM    6  N   UNL     1      11.898  16.381 -28.803  1.00  0.00    -0.236 NA
HETATM    7  C   UNL     1      10.537  15.066 -27.099  1.00  0.00     0.135 A 
HETATM    8  C   UNL     1       8.971  13.705 -28.135  1.00  0.00     0.237 A 
HETATM    9  N   UNL     1       9.532  14.166 -26.995  1.00  0.00    -0.228 NA
ENDROOT
BRANCH   1  10
HETATM   10  C   UNL     1      10.196  15.540 -31.886  1.00  0.00     0.262 C 
HETATM   11  O   UNL     1      11.150  16.036 -32.855  1.00  0.00    -0.353 OA
HETATM   12  C   UNL     1      10.418  16.686 -33.934  1.00  0.00     0.180 C 
HETATM   13  C   UNL     1       8.929  16.521 -33.582  1.00  0.00     0.182 C 
HETATM   14  C   UNL     1       8.946  16.403 -32.064  1.00  0.00     0.198 C 
BRANCH  12  15
HETATM   15  C   UNL     1      10.814  18.169 -34.063  1.00  0.00     0.216 C 
BRANCH  15  16
HETATM   16  O   UNL     1      11.024  18.613 -35.395  1.00  0.00    -0.287 OA
BRANCH  16  17
HETATM   17  P   UNL     1       9.671  19.128 -36.341  1.00  0.00     0.417 P 
HETATM   18  O   UNL     1      10.735  19.930 -37.119  1.00  0.00    -0.624 OA
HETATM   19  O   UNL     1       8.317  19.643 -37.288  1.00  0.00    -0.624 OA
BRANCH  17  20
HETATM   20  O   UNL     1       9.066  20.024 -34.990  1.00  0.00    -0.180 OA
BRANCH  20  21
HETATM   21  P   UNL     1       8.276  21.456 -35.555  1.00  0.00     0.417 P 
HETATM   22  O   UNL     1       9.458  22.238 -34.891  1.00  0.00    -0.624 OA
HETATM   23  O   UNL     1       7.486  22.888 -36.120  1.00  0.00    -0.624 OA
BRANCH  21  24
HETATM   24  O   UNL     1       7.264  21.394 -34.201  1.00  0.00    -0.287 OA
BRANCH  24  25
HETATM   25  C   UNL     1       8.002  21.575 -32.948  1.00  0.00     0.216 C 
BRANCH  25  26
HETATM   26  C   UNL     1       7.442  20.855 -31.669  1.00  0.00     0.180 C 
HETATM   27  O   UNL     1       8.481  20.145 -30.977  1.00  0.00    -0.353 OA
HETATM   28  C   UNL     1       8.843  20.801 -29.799  1.00  0.00     0.259 C 
HETATM   29  C   UNL     1       8.034  22.114 -29.734  1.00  0.00     0.198 C 
HETATM   30  C   UNL     1       6.854  21.829 -30.654  1.00  0.00     0.182 C 
BRANCH  28  31
HETATM   31  N   UNL     1      10.307  21.039 -29.812  1.00  0.00    -0.337 N 
HETATM   32  C   UNL     1      10.824  22.319 -29.738  1.00  0.00     0.106 C 
HETATM   33  C   UNL     1      12.143  22.580 -29.888  1.00  0.00     0.028 C 
HETATM   34  C   UNL     1      13.088  21.443 -30.234  1.00  0.00     0.074 C 
HETATM   35  C   UNL     1      12.513  20.091 -29.918  1.00  0.00    -0.005 C 
HETATM   36  C   UNL     1      11.194  19.960 -29.739  1.00  0.00     0.089 C 
BRANCH  33  37
HETATM   37  C   UNL     1      12.746  23.901 -29.617  1.00  0.00     0.247 C 
HETATM   38  O   UNL     1      12.099  24.821 -29.126  1.00  0.00    -0.268 OA
HETATM   39  N   UNL     1      14.049  24.082 -29.937  1.00  0.00    -0.366 N 
HETATM   40  H   UNL     1      14.653  23.335 -30.245  1.00  0.00     0.159 HD
HETATM   41  H   UNL     1      14.443  24.996 -29.787  1.00  0.00     0.159 HD
ENDBRANCH  33  37
ENDBRANCH  28  31
BRANCH  29  42
HETATM   42  O   UNL     1       7.577  22.427 -28.400  1.00  0.00    -0.388 OA
HETATM   43  H   UNL     1       6.696  22.837 -28.570  1.00  0.00     0.210 HD
ENDBRANCH  29  42
BRANCH  30  44
HETATM   44  O   UNL     1       5.809  21.202 -29.855  1.00  0.00    -0.390 OA
HETATM   45  H   UNL     1       4.982  21.644 -30.153  1.00  0.00     0.210 HD
ENDBRANCH  30  44
ENDBRANCH  25  26
ENDBRANCH  24  25
ENDBRANCH  21  24
ENDBRANCH  20  21
ENDBRANCH  17  20
ENDBRANCH  16  17
ENDBRANCH  15  16
ENDBRANCH  12  15
BRANCH  13  46
HETATM   46  O   UNL     1       8.385  15.268 -34.057  1.00  0.00    -0.390 OA
HETATM   47  H   UNL     1       7.982  14.799 -33.303  1.00  0.00     0.210 HD
ENDBRANCH  13  46
BRANCH  14  48
HETATM   48  O   UNL     1       7.741  15.807 -31.585  1.00  0.00    -0.388 OA
HETATM   49  H   UNL     1       7.028  16.424 -31.853  1.00  0.00     0.210 HD
ENDBRANCH  14  48
ENDBRANCH   1  10
BRANCH   7  50
HETATM   50  N   UNL     1      11.075  15.581 -25.918  1.00  0.00    -0.285 NA
HETATM   51  H   UNL     1      11.517  16.480 -26.079  1.00  0.00     0.125 HD
HETATM   52  H   UNL     1      10.392  15.533 -25.172  1.00  0.00     0.125 HD
ENDBRANCH   7  50
TORSDOF 16
ENDMDL
MODEL 3
REMARK VINA RESULT:      -8.4      1.605      2.077
REMARK  16 active torsions:
REMARK  status: ('A' for Active; 'I' for Inactive)
REMARK    1  A    between atoms: N_1  and  C_3 
REMARK    2  A    between atoms: C_8  and  O_14 
REMARK    3  A    between atoms: C_10  and  N_16 
REMARK    4  A    between atoms: C_12  and  C_17 
REMARK    5  A    between atoms: C_13  and  O_18 
REMARK    6  A    between atoms: C_17  and  O_19 
REMARK    7  A    between atoms: O_19  and  P_43 
REMARK    8  A    between atoms: O_20  and  C_21 
REMARK    9  A    between atoms: O_20  and  P_41 
REMARK   10  A    between atoms: C_21  and  C_22 
REMARK   11  A    between atoms: C_24  and  O_27 
REMARK   12  A    between atoms: C_25  and  N_28 
REMARK   13  A    between atoms: C_26  and  O_29 
REMARK   14  A    between atoms: C_32  and  C_35 
REMARK       I    between atoms: C_35  and  N_37 
REMARK   15  A    between atoms: O_38  and  P_43 
REMARK   16  A    between atoms: O_38  and  P_41 
ROOT
HETATM    1  N   UNL     1      10.840  15.319 -30.602  1.00  0.00    -0.294 N 
HETATM    2  C   UNL     1      10.261  14.806 -29.470  1.00  0.00     0.166 A 
HETATM    3  C   UNL     1      11.939  16.039 -30.212  1.00  0.00     0.214 A 
HETATM    4  C   UNL     1      10.996  15.343 -28.425  1.00  0.00     0.144 A 
HETATM    5  N   UNL     1       9.191  13.998 -29.374  1.00  0.00    -0.222 NA
HETATM    6  N   UNL     1      12.039  16.110 -28.898  1.00  0.00    -0.236 NA
HETATM    7  C   UNL     1      10.544  15.058 -27.126  1.00  0.00     0.135 A 
HETATM    8  C   UNL     1       8.867  13.777 -28.086  1.00  0.00     0.237 A 
HETATM    9  N   UNL     1       9.458  14.266 -26.973  1.00  0.00    -0.228 NA
ENDROOT
BRANCH   1  10
HETATM   10  C   UNL     1      10.296  15.206 -31.940  1.00  0.00     0.262 C 
HETATM   11  O   UNL     1      11.334  15.404 -32.929  1.00  0.00    -0.353 OA
HETATM   12  C   UNL     1      10.747  16.052 -34.093  1.00  0.00     0.180 C 
HETATM   13  C   UNL     1       9.250  16.208 -33.769  1.00  0.00     0.182 C 
HETATM   14  C   UNL     1       9.232  16.261 -32.248  1.00  0.00     0.198 C 
BRANCH  12  15
HETATM   15  C   UNL     1      11.416  17.412 -34.372  1.00  0.00     0.216 C 
BRANCH  15  16
HETATM   16  O   UNL     1      11.236  18.382 -33.352  1.00  0.00    -0.287 OA
BRANCH  16  17
HETATM   17  P   UNL     1      12.371  19.679 -33.205  1.00  0.00     0.417 P 
HETATM   18  O   UNL     1      13.292  18.583 -32.628  1.00  0.00    -0.624 OA
HETATM   19  O   UNL     1      13.506  20.977 -33.057  1.00  0.00    -0.624 OA
BRANCH  17  20
HETATM   20  O   UNL     1      11.392  20.396 -31.970  1.00  0.00    -0.180 OA
BRANCH  20  21
HETATM   21  P   UNL     1      12.103  20.093 -30.423  1.00  0.00     0.417 P 
HETATM   22  O   UNL     1      10.893  19.132 -30.178  1.00  0.00    -0.624 OA
HETATM   23  O   UNL     1      12.813  19.790 -28.875  1.00  0.00    -0.624 OA
BRANCH  21  24
HETATM   24  O   UNL     1      11.379  21.510 -29.848  1.00  0.00    -0.287 OA
BRANCH  24  25
HETATM   25  C   UNL     1      10.851  21.353 -28.491  1.00  0.00     0.216 C 
BRANCH  25  26
HETATM   26  C   UNL     1       9.292  21.254 -28.328  1.00  0.00     0.180 C 
HETATM   27  O   UNL     1       8.796  22.278 -27.453  1.00  0.00    -0.353 OA
HETATM   28  C   UNL     1       8.125  23.272 -28.167  1.00  0.00     0.259 C 
HETATM   29  C   UNL     1       8.253  22.930 -29.666  1.00  0.00     0.198 C 
HETATM   30  C   UNL     1       8.550  21.436 -29.647  1.00  0.00     0.182 C 
BRANCH  28  31
HETATM   31  N   UNL     1       8.723  24.589 -27.834  1.00  0.00    -0.337 N 
HETATM   32  C   UNL     1       9.657  25.180 -28.664  1.00  0.00     0.106 C 
HETATM   33  C   UNL     1      10.322  26.307 -28.323  1.00  0.00     0.028 C 
HETATM   34  C   UNL     1      10.104  26.908 -26.946  1.00  0.00     0.074 C 
HETATM   35  C   UNL     1       8.832  26.434 -26.299  1.00  0.00    -0.005 C 
HETATM   36  C   UNL     1       8.231  25.330 -26.754  1.00  0.00     0.089 C 
BRANCH  33  37
HETATM   37  C   UNL     1      11.172  27.066 -29.263  1.00  0.00     0.247 C 
HETATM   38  O   UNL     1      10.999  27.017 -30.478  1.00  0.00    -0.268 OA
HETATM   39  N   UNL     1      12.169  27.823 -28.750  1.00  0.00    -0.366 N 
HETATM   40  H   UNL     1      12.292  27.981 -27.761  1.00  0.00     0.159 HD
HETATM   41  H   UNL     1      12.770  28.306 -29.397  1.00  0.00     0.159 HD
ENDBRANCH  33  37
ENDBRANCH  28  31
BRANCH  29  42
HETATM   42  O   UNL     1       7.045  23.201 -30.410  1.00  0.00    -0.388 OA
HETATM   43  H   UNL     1       6.358  23.203 -29.702  1.00  0.00     0.210 HD
ENDBRANCH  29  42
BRANCH  30  44
HETATM   44  O   UNL     1       7.274  20.731 -29.644  1.00  0.00    -0.390 OA
HETATM   45  H   UNL     1       7.475  19.875 -29.202  1.00  0.00     0.210 HD
ENDBRANCH  30  44
ENDBRANCH  25  26
ENDBRANCH  24  25
ENDBRANCH  21  24
ENDBRANCH  20  21
ENDBRANCH  17  20
ENDBRANCH  16  17
ENDBRANCH  15  16
ENDBRANCH  12  15
BRANCH  13  46
HETATM   46  O   UNL     1       8.485  15.032 -34.121  1.00  0.00    -0.390 OA
HETATM   47  H   UNL     1       8.431  14.451 -33.340  1.00  0.00     0.210 HD
ENDBRANCH  13  46
BRANCH  14  48
HETATM   48  O   UNL     1       7.932  15.956 -31.743  1.00  0.00    -0.388 OA
HETATM   49  H   UNL     1       8.087  15.341 -30.996  1.00  0.00     0.210 HD
ENDBRANCH  14  48
ENDBRANCH   1  10
BRANCH   7  50
HETATM   50  N   UNL     1      11.117  15.607 -25.977  1.00  0.00    -0.285 NA
HETATM   51  H   UNL     1      10.687  15.231 -25.138  1.00  0.00     0.125 HD
HETATM   52  H   UNL     1      12.126  15.564 -26.035  1.00  0.00     0.125 HD
ENDBRANCH   7  50
TORSDOF 16
ENDMDL
MODEL 4
REMARK VINA RESULT:      -8.4      1.473      2.063
REMARK  16 active torsions:
REMARK  status: ('A' for Active; 'I' for Inactive)
REMARK    1  A    between atoms: N_1  and  C_3 
REMARK    2  A    between atoms: C_8  and  O_14 
REMARK    3  A    between atoms: C_10  and  N_16 
REMARK    4  A    between atoms: C_12  and  C_17 
REMARK    5  A    between atoms: C_13  and  O_18 
REMARK    6  A    between atoms: C_17  and  O_19 
REMARK    7  A    between atoms: O_19  and  P_43 
REMARK    8  A    between atoms: O_20  and  C_21 
REMARK    9  A    between atoms: O_20  and  P_41 
REMARK   10  A    between atoms: C_21  and  C_22 
REMARK   11  A    between atoms: C_24  and  O_27 
REMARK   12  A    between atoms: C_25  and  N_28 
REMARK   13  A    between atoms: C_26  and  O_29 
REMARK   14  A    between atoms: C_32  and  C_35 
REMARK       I    between atoms: C_35  and  N_37 
REMARK   15  A    between atoms: O_38  and  P_43 
REMARK   16  A    between atoms: O_38  and  P_41 
ROOT
HETATM    1  N   UNL     1      10.764  15.452 -30.529  1.00  0.00    -0.294 N 
HETATM    2  C   UNL     1      10.216  14.844 -29.429  1.00  0.00     0.166 A 
HETATM    3  C   UNL     1      11.827  16.203 -30.099  1.00  0.00     0.214 A 
HETATM    4  C   UNL     1      10.927  15.354 -28.355  1.00  0.00     0.144 A 
HETATM    5  N   UNL     1       9.189  13.980 -29.381  1.00  0.00    -0.222 NA
HETATM    6  N   UNL     1      11.929  16.200 -28.783  1.00  0.00    -0.236 NA
HETATM    7  C   UNL     1      10.496  14.970 -27.074  1.00  0.00     0.135 A 
HETATM    8  C   UNL     1       8.881  13.666 -28.108  1.00  0.00     0.237 A 
HETATM    9  N   UNL     1       9.451  14.118 -26.968  1.00  0.00    -0.228 NA
ENDROOT
BRANCH   1  10
HETATM   10  C   UNL     1      10.221  15.392 -31.871  1.00  0.00     0.262 C 
HETATM   11  O   UNL     1      11.205  15.831 -32.837  1.00  0.00    -0.353 OA
HETATM   12  C   UNL     1      10.514  16.497 -33.932  1.00  0.00     0.180 C 
HETATM   13  C   UNL     1       9.016  16.405 -33.593  1.00  0.00     0.182 C 
HETATM   14  C   UNL     1       9.013  16.308 -32.074  1.00  0.00     0.198 C 
BRANCH  12  15
HETATM   15  C   UNL     1      10.978  17.958 -34.078  1.00  0.00     0.216 C 
BRANCH  15  16
HETATM   16  O   UNL     1      10.743  18.773 -32.940  1.00  0.00    -0.287 OA
BRANCH  16  17
HETATM   17  P   UNL     1      12.016  19.778 -32.338  1.00  0.00     0.417 P 
HETATM   18  O   UNL     1      12.928  18.657 -32.879  1.00  0.00    -0.624 OA
HETATM   19  O   UNL     1      13.289  20.784 -31.736  1.00  0.00    -0.624 OA
BRANCH  17  20
HETATM   20  O   UNL     1      11.507  19.453 -30.716  1.00  0.00    -0.180 OA
BRANCH  20  21
HETATM   21  P   UNL     1      12.214  20.614 -29.647  1.00  0.00     0.417 P 
HETATM   22  O   UNL     1      12.919  19.395 -28.966  1.00  0.00    -0.624 OA
HETATM   23  O   UNL     1      12.920  21.776 -28.576  1.00  0.00    -0.624 OA
BRANCH  21  24
HETATM   24  O   UNL     1      10.792  20.586 -28.729  1.00  0.00    -0.287 OA
BRANCH  24  25
HETATM   25  C   UNL     1       9.684  21.267 -29.402  1.00  0.00     0.216 C 
BRANCH  25  26
HETATM   26  C   UNL     1       9.132  22.580 -28.739  1.00  0.00     0.180 C 
HETATM   27  O   UNL     1      10.198  23.486 -28.417  1.00  0.00    -0.353 OA
HETATM   28  C   UNL     1      10.221  24.572 -29.294  1.00  0.00     0.259 C 
HETATM   29  C   UNL     1       9.125  24.334 -30.353  1.00  0.00     0.198 C 
HETATM   30  C   UNL     1       8.191  23.353 -29.658  1.00  0.00     0.182 C 
BRANCH  28  31
HETATM   31  N   UNL     1      11.575  24.676 -29.893  1.00  0.00    -0.337 N 
HETATM   32  C   UNL     1      11.810  24.286 -31.199  1.00  0.00     0.106 C 
HETATM   33  C   UNL     1      13.053  24.236 -31.729  1.00  0.00     0.028 C 
HETATM   34  C   UNL     1      14.249  24.537 -30.844  1.00  0.00     0.074 C 
HETATM   35  C   UNL     1      13.877  25.299 -29.602  1.00  0.00    -0.005 C 
HETATM   36  C   UNL     1      12.603  25.321 -29.198  1.00  0.00     0.089 C 
BRANCH  33  37
HETATM   37  C   UNL     1      13.315  24.018 -33.166  1.00  0.00     0.247 C 
HETATM   38  O   UNL     1      12.842  24.751 -34.031  1.00  0.00    -0.268 OA
HETATM   39  N   UNL     1      14.094  22.969 -33.518  1.00  0.00    -0.366 N 
HETATM   40  H   UNL     1      14.590  22.398 -32.850  1.00  0.00     0.159 HD
HETATM   41  H   UNL     1      14.236  22.801 -34.500  1.00  0.00     0.159 HD
ENDBRANCH  33  37
ENDBRANCH  28  31
BRANCH  29  42
HETATM   42  O   UNL     1       8.420  25.542 -30.714  1.00  0.00    -0.388 OA
HETATM   43  H   UNL     1       7.642  25.192 -31.209  1.00  0.00     0.210 HD
ENDBRANCH  29  42
BRANCH  30  44
HETATM   44  O   UNL     1       7.220  24.128 -28.896  1.00  0.00    -0.390 OA
HETATM   45  H   UNL     1       7.687  24.339 -28.056  1.00  0.00     0.210 HD
ENDBRANCH  30  44
ENDBRANCH  25  26
ENDBRANCH  24  25
ENDBRANCH  21  24
ENDBRANCH  20  21
ENDBRANCH  17  20
ENDBRANCH  16  17
ENDBRANCH  15  16
ENDBRANCH  12  15
BRANCH  13  46
HETATM   46  O   UNL     1       8.420  15.171 -34.056  1.00  0.00    -0.390 OA
HETATM   47  H   UNL     1       8.922  14.855 -34.830  1.00  0.00     0.210 HD
ENDBRANCH  13  46
BRANCH  14  48
HETATM   48  O   UNL     1       7.778  15.774 -31.598  1.00  0.00    -0.388 OA
HETATM   49  H   UNL     1       7.089  16.379 -31.944  1.00  0.00     0.210 HD
ENDBRANCH  14  48
ENDBRANCH   1  10
BRANCH   7  50
HETATM   50  N   UNL     1      11.045  15.478 -25.896  1.00  0.00    -0.285 NA
HETATM   51  H   UNL     1      11.551  16.340 -26.069  1.00  0.00     0.125 HD
HETATM   52  H   UNL     1      10.346  15.496 -25.164  1.00  0.00     0.125 HD
ENDBRANCH   7  50
TORSDOF 16
ENDMDL
MODEL 5
REMARK VINA RESULT:      -8.2      3.219      9.944
REMARK  16 active torsions:
REMARK  status: ('A' for Active; 'I' for Inactive)
REMARK    1  A    between atoms: N_1  and  C_3 
REMARK    2  A    between atoms: C_8  and  O_14 
REMARK    3  A    between atoms: C_10  and  N_16 
REMARK    4  A    between atoms: C_12  and  C_17 
REMARK    5  A    between atoms: C_13  and  O_18 
REMARK    6  A    between atoms: C_17  and  O_19 
REMARK    7  A    between atoms: O_19  and  P_43 
REMARK    8  A    between atoms: O_20  and  C_21 
REMARK    9  A    between atoms: O_20  and  P_41 
REMARK   10  A    between atoms: C_21  and  C_22 
REMARK   11  A    between atoms: C_24  and  O_27 
REMARK   12  A    between atoms: C_25  and  N_28 
REMARK   13  A    between atoms: C_26  and  O_29 
REMARK   14  A    between atoms: C_32  and  C_35 
REMARK       I    between atoms: C_35  and  N_37 
REMARK   15  A    between atoms: O_38  and  P_43 
REMARK   16  A    between atoms: O_38  and  P_41 
ROOT
HETATM    1  N   UNL     1      10.229  27.100 -27.344  1.00  0.00    -0.294 N 
HETATM    2  C   UNL     1      10.411  27.708 -26.129  1.00  0.00     0.166 A 
HETATM    3  C   UNL     1      10.965  27.796 -28.267  1.00  0.00     0.214 A 
HETATM    4  C   UNL     1      11.180  28.826 -26.406  1.00  0.00     0.144 A 
HETATM    5  N   UNL     1       9.921  27.340 -24.932  1.00  0.00    -0.222 NA
HETATM    6  N   UNL     1      11.520  28.872 -27.742  1.00  0.00    -0.236 NA
HETATM    7  C   UNL     1      11.432  29.699 -25.334  1.00  0.00     0.135 A 
HETATM    8  C   UNL     1      10.245  28.236 -23.981  1.00  0.00     0.237 A 
HETATM    9  N   UNL     1      10.943  29.387 -24.112  1.00  0.00    -0.228 NA
ENDROOT
BRANCH   1  10
HETATM   10  C   UNL     1       9.319  26.001 -27.599  1.00  0.00     0.262 C 
HETATM   11  O   UNL     1      10.051  24.760 -27.745  1.00  0.00    -0.353 OA
HETATM   12  C   UNL     1       9.350  23.921 -28.706  1.00  0.00     0.180 C 
HETATM   13  C   UNL     1       8.101  24.718 -29.119  1.00  0.00     0.182 C 
HETATM   14  C   UNL     1       8.526  26.162 -28.896  1.00  0.00     0.198 C 
BRANCH  12  15
HETATM   15  C   UNL     1      10.244  23.592 -29.916  1.00  0.00     0.216 C 
BRANCH  15  16
HETATM   16  O   UNL     1      10.802  22.286 -29.905  1.00  0.00    -0.287 OA
BRANCH  16  17
HETATM   17  P   UNL     1      10.242  21.134 -28.743  1.00  0.00     0.417 P 
HETATM   18  O   UNL     1      11.630  21.356 -28.105  1.00  0.00    -0.624 OA
HETATM   19  O   UNL     1       9.683  19.980 -27.580  1.00  0.00    -0.624 OA
BRANCH  17  20
HETATM   20  O   UNL     1      10.292  19.893 -29.948  1.00  0.00    -0.180 OA
BRANCH  20  21
HETATM   21  P   UNL     1       9.049  20.177 -31.118  1.00  0.00     0.417 P 
HETATM   22  O   UNL     1       8.173  19.204 -30.262  1.00  0.00    -0.624 OA
HETATM   23  O   UNL     1       7.807  20.459 -32.289  1.00  0.00    -0.624 OA
BRANCH  21  24
HETATM   24  O   UNL     1       9.764  19.010 -32.113  1.00  0.00    -0.287 OA
BRANCH  24  25
HETATM   25  C   UNL     1       9.313  19.114 -33.503  1.00  0.00     0.216 C 
BRANCH  25  26
HETATM   26  C   UNL     1       9.873  18.061 -34.526  1.00  0.00     0.180 C 
HETATM   27  O   UNL     1      10.770  17.141 -33.885  1.00  0.00    -0.353 OA
HETATM   28  C   UNL     1      10.180  15.886 -33.727  1.00  0.00     0.259 C 
HETATM   29  C   UNL     1       8.726  15.992 -34.232  1.00  0.00     0.198 C 
HETATM   30  C   UNL     1       8.775  17.206 -35.150  1.00  0.00     0.182 C 
BRANCH  28  31
HETATM   31  N   UNL     1      10.257  15.495 -32.298  1.00  0.00    -0.337 N 
HETATM   32  C   UNL     1      11.436  15.031 -31.746  1.00  0.00     0.106 C 
HETATM   33  C   UNL     1      11.506  14.536 -30.489  1.00  0.00     0.028 C 
HETATM   34  C   UNL     1      10.232  14.404 -29.675  1.00  0.00     0.074 C 
HETATM   35  C   UNL     1       9.114  15.263 -30.197  1.00  0.00    -0.005 C 
HETATM   36  C   UNL     1       9.177  15.741 -31.444  1.00  0.00     0.089 C 
BRANCH  33  37
HETATM   37  C   UNL     1      12.778  14.221 -29.809  1.00  0.00     0.247 C 
HETATM   38  O   UNL     1      13.186  13.069 -29.697  1.00  0.00    -0.268 OA
HETATM   39  N   UNL     1      13.494  15.248 -29.294  1.00  0.00    -0.366 N 
HETATM   40  H   UNL     1      13.261  16.217 -29.445  1.00  0.00     0.159 HD
HETATM   41  H   UNL     1      14.340  15.024 -28.797  1.00  0.00     0.159 HD
ENDBRANCH  33  37
ENDBRANCH  28  31
BRANCH  29  42
HETATM   42  O   UNL     1       8.295  14.820 -34.957  1.00  0.00    -0.388 OA
HETATM   43  H   UNL     1       8.011  14.216 -34.230  1.00  0.00     0.210 HD
ENDBRANCH  29  42
BRANCH  30  44
HETATM   44  O   UNL     1       9.151  16.741 -36.479  1.00  0.00    -0.390 OA
HETATM   45  H   UNL     1       8.405  17.028 -37.053  1.00  0.00     0.210 HD
ENDBRANCH  30  44
ENDBRANCH  25  26
ENDBRANCH  24  25
ENDBRANCH  21  24
ENDBRANCH  20  21
ENDBRANCH  17  20
ENDBRANCH  16  17
ENDBRANCH  15  16
ENDBRANCH  12  15
BRANCH  13  46
HETATM   46  O   UNL     1       6.987  24.504 -28.221  1.00  0.00    -0.390 OA
HETATM   47  H   UNL     1       6.286  24.027 -28.703  1.00  0.00     0.210 HD
ENDBRANCH  13  46
BRANCH  14  48
HETATM   48  O   UNL     1       7.389  27.019 -28.792  1.00  0.00    -0.388 OA
HETATM   49  H   UNL     1       7.319  27.456 -29.667  1.00  0.00     0.210 HD
ENDBRANCH  14  48
ENDBRANCH   1  10
BRANCH   7  50
HETATM   50  N   UNL     1      12.103  30.914 -25.477  1.00  0.00    -0.285 NA
HETATM   51  H   UNL     1      12.770  30.877 -26.241  1.00  0.00     0.125 HD
HETATM   52  H   UNL     1      11.442  31.681 -25.482  1.00  0.00     0.125 HD
ENDBRANCH   7  50
TORSDOF 16
ENDMDL
MODEL 6
REMARK VINA RESULT:      -8.2      2.196      3.352
REMARK  16 active torsions:
REMARK  status: ('A' for Active; 'I' for Inactive)
REMARK    1  A    between atoms: N_1  and  C_3 
REMARK    2  A    between atoms: C_8  and  O_14 
REMARK    3  A    between atoms: C_10  and  N_16 
REMARK    4  A    between atoms: C_12  and  C_17 
REMARK    5  A    between atoms: C_13  and  O_18 
REMARK    6  A    between atoms: C_17  and  O_19 
REMARK    7  A    between atoms: O_19  and  P_43 
REMARK    8  A    between atoms: O_20  and  C_21 
REMARK    9  A    between atoms: O_20  and  P_41 
REMARK   10  A    between atoms: C_21  and  C_22 
REMARK   11  A    between atoms: C_24  and  O_27 
REMARK   12  A    between atoms: C_25  and  N_28 
REMARK   13  A    between atoms: C_26  and  O_29 
REMARK   14  A    between atoms: C_32  and  C_35 
REMARK       I    between atoms: C_35  and  N_37 
REMARK   15  A    between atoms: O_38  and  P_43 
REMARK   16  A    between atoms: O_38  and  P_41 
ROOT
HETATM    1  N   UNL     1      10.792  15.429 -30.567  1.00  0.00    -0.294 N 
HETATM    2  C   UNL     1      10.247  14.859 -29.446  1.00  0.00     0.166 A 
HETATM    3  C   UNL     1      11.858  16.191 -30.164  1.00  0.00     0.214 A 
HETATM    4  C   UNL     1      10.962  15.401 -28.391  1.00  0.00     0.144 A 
HETATM    5  N   UNL     1       9.217  13.998 -29.366  1.00  0.00    -0.222 NA
HETATM    6  N   UNL     1      11.965  16.230 -28.849  1.00  0.00    -0.236 NA
HETATM    7  C   UNL     1      10.535  15.060 -27.097  1.00  0.00     0.135 A 
HETATM    8  C   UNL     1       8.913  13.727 -28.083  1.00  0.00     0.237 A 
HETATM    9  N   UNL     1       9.488  14.214 -26.960  1.00  0.00    -0.228 NA
ENDROOT
BRANCH   1  10
HETATM   10  C   UNL     1      10.244  15.328 -31.904  1.00  0.00     0.262 C 
HETATM   11  O   UNL     1      11.266  15.595 -32.893  1.00  0.00    -0.353 OA
HETATM   12  C   UNL     1      10.643  16.247 -34.037  1.00  0.00     0.180 C 
HETATM   13  C   UNL     1       9.144  16.329 -33.701  1.00  0.00     0.182 C 
HETATM   14  C   UNL     1       9.133  16.342 -32.179  1.00  0.00     0.198 C 
BRANCH  12  15
HETATM   15  C   UNL     1      11.251  17.640 -34.285  1.00  0.00     0.216 C 
BRANCH  15  16
HETATM   16  O   UNL     1      11.171  18.093 -35.628  1.00  0.00    -0.287 OA
BRANCH  16  17
HETATM   17  P   UNL     1       9.843  19.092 -36.109  1.00  0.00     0.417 P 
HETATM   18  O   UNL     1      10.887  19.735 -37.047  1.00  0.00    -0.624 OA
HETATM   19  O   UNL     1       8.515  20.092 -36.591  1.00  0.00    -0.624 OA
BRANCH  17  20
HETATM   20  O   UNL     1       9.844  19.845 -34.551  1.00  0.00    -0.180 OA
BRANCH  20  21
HETATM   21  P   UNL     1       8.527  20.962 -34.450  1.00  0.00     0.417 P 
HETATM   22  O   UNL     1       9.562  21.959 -33.833  1.00  0.00    -0.624 OA
HETATM   23  O   UNL     1       7.208  22.077 -34.348  1.00  0.00    -0.624 OA
BRANCH  21  24
HETATM   24  O   UNL     1       8.050  20.218 -33.007  1.00  0.00    -0.287 OA
BRANCH  24  25
HETATM   25  C   UNL     1       8.453  20.987 -31.827  1.00  0.00     0.216 C 
BRANCH  25  26
HETATM   26  C   UNL     1       9.597  20.392 -30.931  1.00  0.00     0.180 C 
HETATM   27  O   UNL     1      10.557  21.399 -30.577  1.00  0.00    -0.353 OA
HETATM   28  C   UNL     1      10.429  21.771 -29.238  1.00  0.00     0.259 C 
HETATM   29  C   UNL     1       9.220  21.006 -28.659  1.00  0.00     0.198 C 
HETATM   30  C   UNL     1       9.080  19.827 -29.613  1.00  0.00     0.182 C 
BRANCH  28  31
HETATM   31  N   UNL     1      10.256  23.243 -29.163  1.00  0.00    -0.337 N 
HETATM   32  C   UNL     1       9.193  23.803 -28.479  1.00  0.00     0.106 C 
HETATM   33  C   UNL     1       8.929  25.129 -28.509  1.00  0.00     0.028 C 
HETATM   34  C   UNL     1       9.774  26.034 -29.388  1.00  0.00     0.074 C 
HETATM   35  C   UNL     1      11.090  25.414 -29.766  1.00  0.00    -0.005 C 
HETATM   36  C   UNL     1      11.256  24.092 -29.647  1.00  0.00     0.089 C 
BRANCH  33  37
HETATM   37  C   UNL     1       7.929  25.778 -27.636  1.00  0.00     0.247 C 
HETATM   38  O   UNL     1       7.135  26.610 -28.066  1.00  0.00    -0.268 OA
HETATM   39  N   UNL     1       7.912  25.437 -26.327  1.00  0.00    -0.366 N 
HETATM   40  H   UNL     1       8.469  24.689 -25.942  1.00  0.00     0.159 HD
HETATM   41  H   UNL     1       7.256  25.911 -25.729  1.00  0.00     0.159 HD
ENDBRANCH  33  37
ENDBRANCH  28  31
BRANCH  29  42
HETATM   42  O   UNL     1       9.440  20.546 -27.308  1.00  0.00    -0.388 OA
HETATM   43  H   UNL     1       8.820  21.112 -26.790  1.00  0.00     0.210 HD
ENDBRANCH  29  42
BRANCH  30  44
HETATM   44  O   UNL     1       9.934  18.753 -29.120  1.00  0.00    -0.390 OA
HETATM   45  H   UNL     1      10.765  19.210 -28.857  1.00  0.00     0.210 HD
ENDBRANCH  30  44
ENDBRANCH  25  26
ENDBRANCH  24  25
ENDBRANCH  21  24
ENDBRANCH  20  21
ENDBRANCH  17  20
ENDBRANCH  16  17
ENDBRANCH  15  16
ENDBRANCH  12  15
BRANCH  13  46
HETATM   46  O   UNL     1       8.427  15.130 -34.079  1.00  0.00    -0.390 OA
HETATM   47  H   UNL     1       7.836  15.344 -34.824  1.00  0.00     0.210 HD
ENDBRANCH  13  46
BRANCH  14  48
HETATM   48  O   UNL     1       7.851  15.969 -31.674  1.00  0.00    -0.388 OA
HETATM   49  H   UNL     1       7.717  16.529 -30.881  1.00  0.00     0.210 HD
ENDBRANCH  14  48
ENDBRANCH   1  10
BRANCH   7  50
HETATM   50  N   UNL     1      11.089  15.604 -25.938  1.00  0.00    -0.285 NA
HETATM   51  H   UNL     1      10.569  16.420 -25.632  1.00  0.00     0.125 HD
HETATM   52  H   UNL     1      11.248  14.877 -25.251  1.00  0.00     0.125 HD
ENDBRANCH   7  50
TORSDOF 16
ENDMDL
MODEL 7
REMARK VINA RESULT:      -8.2      3.571      5.851
REMARK  16 active torsions:
REMARK  status: ('A' for Active; 'I' for Inactive)
REMARK    1  A    between atoms: N_1  and  C_3 
REMARK    2  A    between atoms: C_8  and  O_14 
REMARK    3  A    between atoms: C_10  and  N_16 
REMARK    4  A    between atoms: C_12  and  C_17 
REMARK    5  A    between atoms: C_13  and  O_18 
REMARK    6  A    between atoms: C_17  and  O_19 
REMARK    7  A    between atoms: O_19  and  P_43 
REMARK    8  A    between atoms: O_20  and  C_21 
REMARK    9  A    between atoms: O_20  and  P_41 
REMARK   10  A    between atoms: C_21  and  C_22 
REMARK   11  A    between atoms: C_24  and  O_27 
REMARK   12  A    between atoms: C_25  and  N_28 
REMARK   13  A    between atoms: C_26  and  O_29 
REMARK   14  A    between atoms: C_32  and  C_35 
REMARK       I    between atoms: C_35  and  N_37 
REMARK   15  A    between atoms: O_38  and  P_43 
REMARK   16  A    between atoms: O_38  and  P_41 
ROOT
HETATM    1  N   UNL     1      14.652  15.618 -30.452  1.00  0.00    -0.294 N 
HETATM    2  C   UNL     1      15.733  14.791 -30.292  1.00  0.00     0.166 A 
HETATM    3  C   UNL     1      15.010  16.599 -31.340  1.00  0.00     0.214 A 
HETATM    4  C   UNL     1      16.744  15.388 -31.026  1.00  0.00     0.144 A 
HETATM    5  N   UNL     1      15.823  13.672 -29.554  1.00  0.00    -0.222 NA
HETATM    6  N   UNL     1      16.284  16.515 -31.676  1.00  0.00    -0.236 NA
HETATM    7  C   UNL     1      18.014  14.793 -30.951  1.00  0.00     0.135 A 
HETATM    8  C   UNL     1      17.076  13.179 -29.575  1.00  0.00     0.237 A 
HETATM    9  N   UNL     1      18.165  13.676 -30.204  1.00  0.00    -0.228 NA
ENDROOT
BRANCH   1  10
HETATM   10  C   UNL     1      13.411  15.521 -29.709  1.00  0.00     0.262 C 
HETATM   11  O   UNL     1      12.597  14.438 -30.220  1.00  0.00    -0.353 OA
HETATM   12  C   UNL     1      11.196  14.808 -30.082  1.00  0.00     0.180 C 
HETATM   13  C   UNL     1      11.197  16.192 -29.408  1.00  0.00     0.182 C 
HETATM   14  C   UNL     1      12.541  16.774 -29.822  1.00  0.00     0.198 C 
BRANCH  12  15
HETATM   15  C   UNL     1      10.490  14.839 -31.451  1.00  0.00     0.216 C 
BRANCH  15  16
HETATM   16  O   UNL     1       9.675  15.980 -31.673  1.00  0.00    -0.287 OA
BRANCH  16  17
HETATM   17  P   UNL     1       9.229  16.403 -33.290  1.00  0.00     0.417 P 
HETATM   18  O   UNL     1      10.458  15.550 -33.671  1.00  0.00    -0.624 OA
HETATM   19  O   UNL     1       8.784  16.827 -34.908  1.00  0.00    -0.624 OA
BRANCH  17  20
HETATM   20  O   UNL     1       9.673  18.048 -32.982  1.00  0.00    -0.180 OA
BRANCH  20  21
HETATM   21  P   UNL     1       8.891  18.595 -31.539  1.00  0.00     0.417 P 
HETATM   22  O   UNL     1       8.416  19.818 -32.392  1.00  0.00    -0.624 OA
HETATM   23  O   UNL     1       8.110  19.143 -30.096  1.00  0.00    -0.624 OA
BRANCH  21  24
HETATM   24  O   UNL     1      10.367  19.245 -31.025  1.00  0.00    -0.287 OA
BRANCH  24  25
HETATM   25  C   UNL     1      10.212  20.119 -29.860  1.00  0.00     0.216 C 
BRANCH  25  26
HETATM   26  C   UNL     1      11.445  21.001 -29.448  1.00  0.00     0.180 C 
HETATM   27  O   UNL     1      12.642  20.560 -30.108  1.00  0.00    -0.353 OA
HETATM   28  C   UNL     1      13.018  21.447 -31.118  1.00  0.00     0.259 C 
HETATM   29  C   UNL     1      11.932  22.540 -31.202  1.00  0.00     0.198 C 
HETATM   30  C   UNL     1      11.274  22.467 -29.831  1.00  0.00     0.182 C 
BRANCH  28  31
HETATM   31  N   UNL     1      13.164  20.694 -32.388  1.00  0.00    -0.337 N 
HETATM   32  C   UNL     1      12.125  20.617 -33.296  1.00  0.00     0.106 C 
HETATM   33  C   UNL     1      12.175  19.827 -34.393  1.00  0.00     0.028 C 
HETATM   34  C   UNL     1      13.377  18.924 -34.601  1.00  0.00     0.074 C 
HETATM   35  C   UNL     1      14.574  19.354 -33.799  1.00  0.00    -0.005 C 
HETATM   36  C   UNL     1      14.411  20.182 -32.762  1.00  0.00     0.089 C 
BRANCH  33  37
HETATM   37  C   UNL     1      11.171  19.876 -35.476  1.00  0.00     0.247 C 
HETATM   38  O   UNL     1      10.677  20.934 -35.855  1.00  0.00    -0.268 OA
HETATM   39  N   UNL     1      10.795  18.708 -36.047  1.00  0.00    -0.366 N 
HETATM   40  H   UNL     1      11.241  17.825 -35.848  1.00  0.00     0.159 HD
HETATM   41  H   UNL     1      10.082  18.743 -36.756  1.00  0.00     0.159 HD
ENDBRANCH  33  37
ENDBRANCH  28  31
BRANCH  29  42
HETATM   42  O   UNL     1      12.477  23.857 -31.438  1.00  0.00    -0.388 OA
HETATM   43  H   UNL     1      13.328  23.653 -31.893  1.00  0.00     0.210 HD
ENDBRANCH  29  42
BRANCH  30  44
HETATM   44  O   UNL     1      12.018  23.343 -28.934  1.00  0.00    -0.390 OA
HETATM   45  H   UNL     1      12.173  22.791 -28.134  1.00  0.00     0.210 HD
ENDBRANCH  30  44
ENDBRANCH  25  26
ENDBRANCH  24  25
ENDBRANCH  21  24
ENDBRANCH  20  21
ENDBRANCH  17  20
ENDBRANCH  16  17
ENDBRANCH  15  16
ENDBRANCH  12  15
BRANCH  13  46
HETATM   46  O   UNL     1      11.246  16.103 -27.966  1.00  0.00    -0.390 OA
HETATM   47  H   UNL     1      11.842  15.371 -27.719  1.00  0.00     0.210 HD
ENDBRANCH  13  46
BRANCH  14  48
HETATM   48  O   UNL     1      12.924  17.841 -28.955  1.00  0.00    -0.388 OA
HETATM   49  H   UNL     1      12.124  18.036 -28.423  1.00  0.00     0.210 HD
ENDBRANCH  14  48
ENDBRANCH   1  10
BRANCH   7  50
HETATM   50  N   UNL     1      19.152  15.334 -31.551  1.00  0.00    -0.285 NA
HETATM   51  H   UNL     1      19.223  15.052 -32.523  1.00  0.00     0.125 HD
HETATM   52  H   UNL     1      19.214  16.325 -31.355  1.00  0.00     0.125 HD
ENDBRANCH   7  50
TORSDOF 16
ENDMDL
MODEL 8
REMARK VINA RESULT:      -8.1      2.653      4.067
REMARK  16 active torsions:
REMARK  status: ('A' for Active; 'I' for Inactive)
REMARK    1  A    between atoms: N_1  and  C_3 
REMARK    2  A    between atoms: C_8  and  O_14 
REMARK    3  A    between atoms: C_10  and  N_16 
REMARK    4  A    between atoms: C_12  and  C_17 
REMARK    5  A    between atoms: C_13  and  O_18 
REMARK    6  A    between atoms: C_17  and  O_19 
REMARK    7  A    between atoms: O_19  and  P_43 
REMARK    8  A    between atoms: O_20  and  C_21 
REMARK    9  A    between atoms: O_20  and  P_41 
REMARK   10  A    between atoms: C_21  and  C_22 
REMARK   11  A    between atoms: C_24  and  O_27 
REMARK   12  A    between atoms: C_25  and  N_28 
REMARK   13  A    between atoms: C_26  and  O_29 
REMARK   14  A    between atoms: C_32  and  C_35 
REMARK       I    between atoms: C_35  and  N_37 
REMARK   15  A    between atoms: O_38  and  P_43 
REMARK   16  A    between atoms: O_38  and  P_41 
ROOT
HETATM    1  N   UNL     1      10.836  15.414 -30.642  1.00  0.00    -0.294 N 
HETATM    2  C   UNL     1      10.297  14.855 -29.512  1.00  0.00     0.166 A 
HETATM    3  C   UNL     1      11.888  16.201 -30.251  1.00  0.00     0.214 A 
HETATM    4  C   UNL     1      11.000  15.429 -28.466  1.00  0.00     0.144 A 
HETATM    5  N   UNL     1       9.282  13.979 -29.420  1.00  0.00    -0.222 NA
HETATM    6  N   UNL     1      11.990  16.266 -28.936  1.00  0.00    -0.236 NA
HETATM    7  C   UNL     1      10.574  15.104 -27.167  1.00  0.00     0.135 A 
HETATM    8  C   UNL     1       8.978  13.726 -28.133  1.00  0.00     0.237 A 
HETATM    9  N   UNL     1       9.542  14.243 -27.018  1.00  0.00    -0.228 NA
ENDROOT
BRANCH   1  10
HETATM   10  C   UNL     1      10.294  15.279 -31.979  1.00  0.00     0.262 C 
HETATM   11  O   UNL     1      11.310  15.559 -32.970  1.00  0.00    -0.353 OA
HETATM   12  C   UNL     1      10.674  16.177 -34.125  1.00  0.00     0.180 C 
HETATM   13  C   UNL     1       9.172  16.225 -33.793  1.00  0.00     0.182 C 
HETATM   14  C   UNL     1       9.158  16.260 -32.271  1.00  0.00     0.198 C 
BRANCH  12  15
HETATM   15  C   UNL     1      11.245  17.582 -34.391  1.00  0.00     0.216 C 
BRANCH  15  16
HETATM   16  O   UNL     1      11.319  17.943 -35.762  1.00  0.00    -0.287 OA
BRANCH  16  17
HETATM   17  P   UNL     1       9.964  18.717 -36.510  1.00  0.00     0.417 P 
HETATM   18  O   UNL     1      10.575  18.151 -37.810  1.00  0.00    -0.624 OA
HETATM   19  O   UNL     1       8.610  19.492 -37.259  1.00  0.00    -0.624 OA
BRANCH  17  20
HETATM   20  O   UNL     1      10.633  20.265 -36.120  1.00  0.00    -0.180 OA
BRANCH  20  21
HETATM   21  P   UNL     1       9.406  21.262 -35.417  1.00  0.00     0.417 P 
HETATM   22  O   UNL     1      10.584  22.086 -34.801  1.00  0.00    -0.624 OA
HETATM   23  O   UNL     1       8.179  22.258 -34.713  1.00  0.00    -0.624 OA
BRANCH  21  24
HETATM   24  O   UNL     1       9.250  20.132 -34.167  1.00  0.00    -0.287 OA
BRANCH  24  25
HETATM   25  C   UNL     1       8.529  20.676 -33.014  1.00  0.00     0.216 C 
BRANCH  25  26
HETATM   26  C   UNL     1       8.668  19.912 -31.649  1.00  0.00     0.180 C 
HETATM   27  O   UNL     1       9.982  19.356 -31.496  1.00  0.00    -0.353 OA
HETATM   28  C   UNL     1      10.730  20.074 -30.561  1.00  0.00     0.259 C 
HETATM   29  C   UNL     1       9.871  21.271 -30.104  1.00  0.00     0.198 C 
HETATM   30  C   UNL     1       8.456  20.820 -30.442  1.00  0.00     0.182 C 
BRANCH  28  31
HETATM   31  N   UNL     1      12.005  20.499 -31.191  1.00  0.00    -0.337 N 
HETATM   32  C   UNL     1      12.984  19.578 -31.513  1.00  0.00     0.106 C 
HETATM   33  C   UNL     1      14.208  19.945 -31.956  1.00  0.00     0.028 C 
HETATM   34  C   UNL     1      14.560  21.420 -32.026  1.00  0.00     0.074 C 
HETATM   35  C   UNL     1      13.347  22.308 -32.027  1.00  0.00    -0.005 C 
HETATM   36  C   UNL     1      12.172  21.821 -31.614  1.00  0.00     0.089 C 
BRANCH  33  37
HETATM   37  C   UNL     1      15.198  18.989 -32.494  1.00  0.00     0.247 C 
HETATM   38  O   UNL     1      15.445  17.926 -31.932  1.00  0.00    -0.268 OA
HETATM   39  N   UNL     1      15.845  19.319 -33.636  1.00  0.00    -0.366 N 
HETATM   40  H   UNL     1      15.609  20.127 -34.192  1.00  0.00     0.159 HD
HETATM   41  H   UNL     1      16.546  18.683 -33.976  1.00  0.00     0.159 HD
ENDBRANCH  33  37
ENDBRANCH  28  31
BRANCH  29  42
HETATM   42  O   UNL     1       9.996  21.547 -28.692  1.00  0.00    -0.388 OA
HETATM   43  H   UNL     1      10.429  20.727 -28.356  1.00  0.00     0.210 HD
ENDBRANCH  29  42
BRANCH  30  44
HETATM   44  O   UNL     1       7.943  20.077 -29.298  1.00  0.00    -0.390 OA
HETATM   45  H   UNL     1       7.530  20.767 -28.730  1.00  0.00     0.210 HD
ENDBRANCH  30  44
ENDBRANCH  25  26
ENDBRANCH  24  25
ENDBRANCH  21  24
ENDBRANCH  20  21
ENDBRANCH  17  20
ENDBRANCH  16  17
ENDBRANCH  15  16
ENDBRANCH  12  15
BRANCH  13  46
HETATM   46  O   UNL     1       8.488  15.003 -34.154  1.00  0.00    -0.390 OA
HETATM   47  H   UNL     1       8.788  14.729 -35.041  1.00  0.00     0.210 HD
ENDBRANCH  13  46
BRANCH  14  48
HETATM   48  O   UNL     1       7.885  15.861 -31.763  1.00  0.00    -0.388 OA
HETATM   49  H   UNL     1       7.952  15.971 -30.792  1.00  0.00     0.210 HD
ENDBRANCH  14  48
ENDBRANCH   1  10
BRANCH   7  50
HETATM   50  N   UNL     1      11.115  15.679 -26.017  1.00  0.00    -0.285 NA
HETATM   51  H   UNL     1      10.458  15.641 -25.244  1.00  0.00     0.125 HD
HETATM   52  H   UNL     1      12.044  15.315 -25.847  1.00  0.00     0.125 HD
ENDBRANCH   7  50
TORSDOF 16
ENDMDL
MODEL 9
REMARK VINA RESULT:      -8.1      3.298      5.732
REMARK  16 active torsions:
REMARK  status: ('A' for Active; 'I' for Inactive)
REMARK    1  A    between atoms: N_1  and  C_3 
REMARK    2  A    between atoms: C_8  and  O_14 
REMARK    3  A    between atoms: C_10  and  N_16 
REMARK    4  A    between atoms: C_12  and  C_17 
REMARK    5  A    between atoms: C_13  and  O_18 
REMARK    6  A    between atoms: C_17  and  O_19 
REMARK    7  A    between atoms: O_19  and  P_43 
REMARK    8  A    between atoms: O_20  and  C_21 
REMARK    9  A    between atoms: O_20  and  P_41 
REMARK   10  A    between atoms: C_21  and  C_22 
REMARK   11  A    between atoms: C_24  and  O_27 
REMARK   12  A    between atoms: C_25  and  N_28 
REMARK   13  A    between atoms: C_26  and  O_29 
REMARK   14  A    between atoms: C_32  and  C_35 
REMARK       I    between atoms: C_35  and  N_37 
REMARK   15  A    between atoms: O_38  and  P_43 
REMARK   16  A    between atoms: O_38  and  P_41 
ROOT
HETATM    1  N   UNL     1      14.011  14.807 -30.514  1.00  0.00    -0.294 N 
HETATM    2  C   UNL     1      15.360  14.853 -30.753  1.00  0.00     0.166 A 
HETATM    3  C   UNL     1      13.806  13.946 -29.468  1.00  0.00     0.214 A 
HETATM    4  C   UNL     1      15.902  13.915 -29.890  1.00  0.00     0.144 A 
HETATM    5  N   UNL     1      16.021  15.600 -31.653  1.00  0.00    -0.222 NA
HETATM    6  N   UNL     1      14.926  13.355 -29.093  1.00  0.00    -0.236 NA
HETATM    7  C   UNL     1      17.282  13.679 -30.001  1.00  0.00     0.135 A 
HETATM    8  C   UNL     1      17.335  15.306 -31.653  1.00  0.00     0.237 A 
HETATM    9  N   UNL     1      17.993  14.390 -30.907  1.00  0.00    -0.228 NA
ENDROOT
BRANCH   1  10
HETATM   10  C   UNL     1      12.999  15.465 -31.317  1.00  0.00     0.262 C 
HETATM   11  O   UNL     1      13.089  16.902 -31.170  1.00  0.00    -0.353 OA
HETATM   12  C   UNL     1      11.749  17.462 -31.272  1.00  0.00     0.180 C 
HETATM   13  C   UNL     1      10.819  16.264 -31.534  1.00  0.00     0.182 C 
HETATM   14  C   UNL     1      11.573  15.100 -30.906  1.00  0.00     0.198 C 
BRANCH  12  15
HETATM   15  C   UNL     1      11.360  18.216 -29.986  1.00  0.00     0.216 C 
BRANCH  15  16
HETATM   16  O   UNL     1      11.211  19.619 -30.144  1.00  0.00    -0.287 OA
BRANCH  16  17
HETATM   17  P   UNL     1      12.613  20.600 -30.395  1.00  0.00     0.417 P 
HETATM   18  O   UNL     1      12.016  21.449 -29.253  1.00  0.00    -0.624 OA
HETATM   19  O   UNL     1      14.016  21.581 -30.648  1.00  0.00    -0.624 OA
BRANCH  17  20
HETATM   20  O   UNL     1      11.995  21.089 -31.936  1.00  0.00    -0.180 OA
BRANCH  20  21
HETATM   21  P   UNL     1      13.111  20.632 -33.176  1.00  0.00     0.417 P 
HETATM   22  O   UNL     1      13.031  22.122 -33.646  1.00  0.00    -0.624 OA
HETATM   23  O   UNL     1      14.226  20.174 -34.417  1.00  0.00    -0.624 OA
BRANCH  21  24
HETATM   24  O   UNL     1      11.810  20.044 -34.085  1.00  0.00    -0.287 OA
BRANCH  24  25
HETATM   25  C   UNL     1      12.186  18.896 -34.914  1.00  0.00     0.216 C 
BRANCH  25  26
HETATM   26  C   UNL     1      11.025  17.999 -35.476  1.00  0.00     0.180 C 
HETATM   27  O   UNL     1       9.836  18.133 -34.683  1.00  0.00    -0.353 OA
HETATM   28  C   UNL     1       8.865  18.881 -35.350  1.00  0.00     0.259 C 
HETATM   29  C   UNL     1       9.485  19.365 -36.677  1.00  0.00     0.198 C 
HETATM   30  C   UNL     1      10.624  18.378 -36.897  1.00  0.00     0.182 C 
BRANCH  28  31
HETATM   31  N   UNL     1       8.442  20.005 -34.479  1.00  0.00    -0.337 N 
HETATM   32  C   UNL     1       8.533  19.916 -33.103  1.00  0.00     0.106 C 
HETATM   33  C   UNL     1       8.028  20.862 -32.278  1.00  0.00     0.028 C 
HETATM   34  C   UNL     1       7.258  22.027 -32.872  1.00  0.00     0.074 C 
HETATM   35  C   UNL     1       7.542  22.229 -34.335  1.00  0.00    -0.005 C 
HETATM   36  C   UNL     1       8.092  21.236 -35.043  1.00  0.00     0.089 C 
BRANCH  33  37
HETATM   37  C   UNL     1       8.284  20.893 -30.824  1.00  0.00     0.247 C 
HETATM   38  O   UNL     1       7.727  20.119 -30.050  1.00  0.00    -0.268 OA
HETATM   39  N   UNL     1       9.155  21.815 -30.352  1.00  0.00    -0.366 N 
HETATM   40  H   UNL     1       9.716  22.404 -30.948  1.00  0.00     0.159 HD
HETATM   41  H   UNL     1       9.295  21.858 -29.356  1.00  0.00     0.159 HD
ENDBRANCH  33  37
ENDBRANCH  28  31
BRANCH  29  42
HETATM   42  O   UNL     1       8.555  19.326 -37.781  1.00  0.00    -0.388 OA
HETATM   43  H   UNL     1       7.687  19.454 -37.329  1.00  0.00     0.210 HD
ENDBRANCH  29  42
BRANCH  30  44
HETATM   44  O   UNL     1      10.085  17.234 -37.623  1.00  0.00    -0.390 OA
HETATM   45  H   UNL     1       9.123  17.430 -37.698  1.00  0.00     0.210 HD
ENDBRANCH  30  44
ENDBRANCH  25  26
ENDBRANCH  24  25
ENDBRANCH  21  24
ENDBRANCH  20  21
ENDBRANCH  17  20
ENDBRANCH  16  17
ENDBRANCH  15  16
ENDBRANCH  12  15
BRANCH  13  46
HETATM   46  O   UNL     1      10.718  15.941 -32.940  1.00  0.00    -0.390 OA
HETATM   47  H   UNL     1      11.422  15.304 -33.164  1.00  0.00     0.210 HD
ENDBRANCH  13  46
BRANCH  14  48
HETATM   48  O   UNL     1      11.107  13.853 -31.422  1.00  0.00    -0.388 OA
HETATM   49  H   UNL     1      11.903  13.420 -31.797  1.00  0.00     0.210 HD
ENDBRANCH  14  48
ENDBRANCH   1  10
BRANCH   7  50
HETATM   50  N   UNL     1      17.954  12.696 -29.273  1.00  0.00    -0.285 NA
HETATM   51  H   UNL     1      18.954  12.863 -29.267  1.00  0.00     0.125 HD
HETATM   52  H   UNL     1      17.506  12.558 -28.376  1.00  0.00     0.125 HD
ENDBRANCH   7  50
TORSDOF 16
ENDMDL
