MODEL 1
REMARK VINA RESULT:      -8.6      0.000      0.000
REMARK  1 active torsions:
REMARK  status: ('A' for Active; 'I' for Inactive)
REMARK    1  A    between atoms: C_5  and  C_6 
ROOT
HETATM    1  C   UNL     1      16.574  22.847 -32.051  1.00  0.00     0.048 C 
HETATM    2  C   UNL     1      15.483  21.845 -31.930  1.00  0.00    -0.062 A 
HETATM    3  C   UNL     1      14.342  22.084 -31.138  1.00  0.00     0.007 A 
HETATM    4  C   UNL     1      13.299  21.155 -31.088  1.00  0.00     0.010 A 
HETATM    5  C   UNL     1      13.386  19.940 -31.791  1.00  0.00    -0.030 A 
HETATM    6  C   UNL     1      14.536  19.698 -32.566  1.00  0.00     0.010 A 
HETATM    7  C   UNL     1      15.556  20.644 -32.635  1.00  0.00     0.007 A 
ENDROOT
BRANCH   5   8
HETATM    8  C   UNL     1      12.238  18.915 -31.822  1.00  0.00     0.167 A 
HETATM    9  C   UNL     1      12.653  17.615 -31.210  1.00  0.00     0.074 A 
HETATM   10  C   UNL     1      12.502  16.416 -31.797  1.00  0.00     0.084 A 
HETATM   11  C   UNL     1      13.533  17.681 -30.033  1.00  0.00     0.295 C 
HETATM   12  N   UNL     1      12.031  16.255 -33.081  1.00  0.00    -0.223 NA
HETATM   13  C   UNL     1      13.282  15.352 -31.161  1.00  0.00     0.014 C 
HETATM   14  C   UNL     1      11.758  17.367 -33.692  1.00  0.00     0.175 A 
HETATM   15  S   UNL     1      11.354  17.377 -35.426  1.00  0.00    -0.050 SA
HETATM   16  N   UNL     1      11.767  18.654 -33.180  1.00  0.00    -0.311 N 
HETATM   17  C   UNL     1      11.197  19.156 -35.395  1.00  0.00     0.035 A 
HETATM   18  C   UNL     1      10.933  20.002 -36.464  1.00  0.00     0.021 A 
HETATM   19  C   UNL     1      11.391  19.644 -34.091  1.00  0.00     0.055 A 
HETATM   20  C   UNL     1      10.808  21.369 -36.214  1.00  0.00     0.002 A 
HETATM   21  C   UNL     1      10.937  21.865 -34.911  1.00  0.00     0.002 A 
HETATM   22  C   UNL     1      11.226  21.003 -33.848  1.00  0.00     0.031 A 
HETATM   23  C   UNL     1      12.809  14.303 -30.378  1.00  0.00     0.013 C 
HETATM   24  C   UNL     1      14.623  15.702 -31.006  1.00  0.00     0.158 C 
HETATM   25  C   UNL     1      13.704  13.629 -29.521  1.00  0.00     0.001 C 
HETATM   26  C   UNL     1      15.078  13.861 -29.602  1.00  0.00    -0.001 C 
HETATM   27  C   UNL     1      15.542  14.787 -30.520  1.00  0.00     0.020 C 
HETATM   28  O   UNL     1      14.727  16.997 -30.268  1.00  0.00    -0.293 OA
HETATM   29  O   UNL     1      13.287  18.343 -29.035  1.00  0.00    -0.259 OA
ENDBRANCH   5   8
TORSDOF 1
ENDMDL
MODEL 2
REMARK VINA RESULT:      -7.6     25.639     27.393
REMARK  1 active torsions:
REMARK  status: ('A' for Active; 'I' for Inactive)
REMARK    1  A    between atoms: C_5  and  C_6 
ROOT
HETATM    1  C   UNL     1      30.930   1.141 -16.194  1.00  0.00     0.048 C 
HETATM    2  C   UNL     1      30.105   0.820 -17.389  1.00  0.00    -0.062 A 
HETATM    3  C   UNL     1      30.348  -0.326 -18.170  1.00  0.00     0.007 A 
HETATM    4  C   UNL     1      29.522  -0.644 -19.252  1.00  0.00     0.010 A 
HETATM    5  C   UNL     1      28.457   0.202 -19.613  1.00  0.00    -0.030 A 
HETATM    6  C   UNL     1      28.230   1.356 -18.840  1.00  0.00     0.010 A 
HETATM    7  C   UNL     1      29.039   1.646 -17.745  1.00  0.00     0.007 A 
ENDROOT
BRANCH   5   8
HETATM    8  C   UNL     1      27.480  -0.137 -20.753  1.00  0.00     0.167 A 
HETATM    9  C   UNL     1      26.711  -1.386 -20.457  1.00  0.00     0.074 A 
HETATM   10  C   UNL     1      26.600  -2.427 -21.298  1.00  0.00     0.084 A 
HETATM   11  C   UNL     1      26.298  -1.602 -19.061  1.00  0.00     0.295 C 
HETATM   12  N   UNL     1      27.267  -2.504 -22.500  1.00  0.00    -0.223 NA
HETATM   13  C   UNL     1      26.096  -3.644 -20.658  1.00  0.00     0.014 C 
HETATM   14  C   UNL     1      28.033  -1.488 -22.751  1.00  0.00     0.175 A 
HETATM   15  S   UNL     1      29.143  -1.506 -24.143  1.00  0.00    -0.050 SA
HETATM   16  N   UNL     1      28.162  -0.311 -22.032  1.00  0.00    -0.311 N 
HETATM   17  C   UNL     1      29.748   0.116 -23.702  1.00  0.00     0.035 A 
HETATM   18  C   UNL     1      30.760   0.839 -24.319  1.00  0.00     0.021 A 
HETATM   19  C   UNL     1      29.054   0.612 -22.585  1.00  0.00     0.055 A 
HETATM   20  C   UNL     1      31.051   2.116 -23.838  1.00  0.00     0.002 A 
HETATM   21  C   UNL     1      30.328   2.651 -22.765  1.00  0.00     0.002 A 
HETATM   22  C   UNL     1      29.327   1.901 -22.140  1.00  0.00     0.031 A 
HETATM   23  C   UNL     1      24.840  -4.225 -20.806  1.00  0.00     0.013 C 
HETATM   24  C   UNL     1      26.809  -3.968 -19.504  1.00  0.00     0.158 C 
HETATM   25  C   UNL     1      24.382  -5.131 -19.826  1.00  0.00     0.001 C 
HETATM   26  C   UNL     1      25.244  -5.602 -18.835  1.00  0.00    -0.001 C 
HETATM   27  C   UNL     1      26.550  -5.141 -18.816  1.00  0.00     0.020 C 
HETATM   28  O   UNL     1      26.819  -2.800 -18.570  1.00  0.00    -0.293 OA
HETATM   29  O   UNL     1      25.679  -0.782 -18.400  1.00  0.00    -0.259 OA
ENDBRANCH   5   8
TORSDOF 1
ENDMDL
MODEL 3
REMARK VINA RESULT:      -7.4     15.712     18.750
REMARK  1 active torsions:
REMARK  status: ('A' for Active; 'I' for Inactive)
REMARK    1  A    between atoms: C_5  and  C_6 
ROOT
HETATM    1  C   UNL     1       7.863  14.731 -49.896  1.00  0.00     0.048 C 
HETATM    2  C   UNL     1       9.246  14.226 -49.687  1.00  0.00    -0.062 A 
HETATM    3  C   UNL     1       9.503  13.058 -48.943  1.00  0.00     0.007 A 
HETATM    4  C   UNL     1      10.804  12.565 -48.811  1.00  0.00     0.010 A 
HETATM    5  C   UNL     1      11.891  13.253 -49.380  1.00  0.00    -0.030 A 
HETATM    6  C   UNL     1      11.631  14.430 -50.106  1.00  0.00     0.010 A 
HETATM    7  C   UNL     1      10.327  14.895 -50.259  1.00  0.00     0.007 A 
ENDROOT
BRANCH   5   8
HETATM    8  C   UNL     1      13.334  12.717 -49.320  1.00  0.00     0.167 A 
HETATM    9  C   UNL     1      14.219  13.628 -48.530  1.00  0.00     0.074 A 
HETATM   10  C   UNL     1      15.399  14.104 -48.962  1.00  0.00     0.084 A 
HETATM   11  C   UNL     1      13.633  14.264 -47.339  1.00  0.00     0.295 C 
HETATM   12  N   UNL     1      15.886  13.884 -50.231  1.00  0.00    -0.223 NA
HETATM   13  C   UNL     1      15.903  15.226 -48.165  1.00  0.00     0.014 C 
HETATM   14  C   UNL     1      15.099  13.186 -50.990  1.00  0.00     0.175 A 
HETATM   15  S   UNL     1      15.449  12.986 -52.724  1.00  0.00    -0.050 SA
HETATM   16  N   UNL     1      13.917  12.550 -50.649  1.00  0.00    -0.311 N 
HETATM   17  C   UNL     1      13.959  12.021 -52.930  1.00  0.00     0.035 A 
HETATM   18  C   UNL     1      13.446  11.497 -54.109  1.00  0.00     0.021 A 
HETATM   19  C   UNL     1      13.314  11.845 -51.694  1.00  0.00     0.055 A 
HETATM   20  C   UNL     1      12.282  10.731 -54.042  1.00  0.00     0.002 A 
HETATM   21  C   UNL     1      11.659  10.494 -52.811  1.00  0.00     0.002 A 
HETATM   22  C   UNL     1      12.176  11.048 -51.635  1.00  0.00     0.031 A 
HETATM   23  C   UNL     1      16.969  15.221 -47.271  1.00  0.00     0.013 C 
HETATM   24  C   UNL     1      14.950  16.231 -48.008  1.00  0.00     0.158 C 
HETATM   25  C   UNL     1      17.056  16.242 -46.301  1.00  0.00     0.001 C 
HETATM   26  C   UNL     1      16.213  17.353 -46.361  1.00  0.00    -0.001 C 
HETATM   27  C   UNL     1      15.272  17.420 -47.374  1.00  0.00     0.020 C 
HETATM   28  O   UNL     1      13.693  15.654 -47.440  1.00  0.00    -0.293 OA
HETATM   29  O   UNL     1      13.072  13.647 -46.446  1.00  0.00    -0.259 OA
ENDBRANCH   5   8
TORSDOF 1
ENDMDL
MODEL 4
REMARK VINA RESULT:      -7.4      3.482      6.816
REMARK  1 active torsions:
REMARK  status: ('A' for Active; 'I' for Inactive)
REMARK    1  A    between atoms: C_5  and  C_6 
ROOT
HETATM    1  C   UNL     1       9.188  21.896 -27.813  1.00  0.00     0.048 C 
HETATM    2  C   UNL     1       9.690  20.990 -28.880  1.00  0.00    -0.062 A 
HETATM    3  C   UNL     1      11.067  20.828 -29.127  1.00  0.00     0.007 A 
HETATM    4  C   UNL     1      11.520  19.924 -30.091  1.00  0.00     0.010 A 
HETATM    5  C   UNL     1      10.606  19.188 -30.869  1.00  0.00    -0.030 A 
HETATM    6  C   UNL     1       9.231  19.367 -30.630  1.00  0.00     0.010 A 
HETATM    7  C   UNL     1       8.791  20.247 -29.645  1.00  0.00     0.007 A 
ENDROOT
BRANCH   5   8
HETATM    8  C   UNL     1      11.054  18.132 -31.896  1.00  0.00     0.167 A 
HETATM    9  C   UNL     1      10.704  18.547 -33.290  1.00  0.00     0.074 A 
HETATM   10  C   UNL     1      10.042  17.776 -34.168  1.00  0.00     0.084 A 
HETATM   11  C   UNL     1      10.837  19.976 -33.616  1.00  0.00     0.295 C 
HETATM   12  N   UNL     1       9.521  16.542 -33.851  1.00  0.00    -0.223 NA
HETATM   13  C   UNL     1       9.528  18.516 -35.323  1.00  0.00     0.014 C 
HETATM   14  C   UNL     1       9.708  16.185 -32.618  1.00  0.00     0.175 A 
HETATM   15  S   UNL     1       8.918  14.731 -31.961  1.00  0.00    -0.050 SA
HETATM   16  N   UNL     1      10.454  16.825 -31.642  1.00  0.00    -0.311 N 
HETATM   17  C   UNL     1       9.647  15.039 -30.359  1.00  0.00     0.035 A 
HETATM   18  C   UNL     1       9.452  14.320 -29.188  1.00  0.00     0.021 A 
HETATM   19  C   UNL     1      10.485  16.166 -30.410  1.00  0.00     0.055 A 
HETATM   20  C   UNL     1      10.156  14.707 -28.047  1.00  0.00     0.002 A 
HETATM   21  C   UNL     1      11.043  15.790 -28.095  1.00  0.00     0.002 A 
HETATM   22  C   UNL     1      11.211  16.518 -29.277  1.00  0.00     0.031 A 
HETATM   23  C   UNL     1       9.996  18.479 -36.633  1.00  0.00     0.013 C 
HETATM   24  C   UNL     1       8.794  19.640 -34.946  1.00  0.00     0.158 C 
HETATM   25  C   UNL     1       9.670  19.537 -37.509  1.00  0.00     0.001 C 
HETATM   26  C   UNL     1       8.728  20.498 -37.143  1.00  0.00    -0.001 C 
HETATM   27  C   UNL     1       8.139  20.410 -35.893  1.00  0.00     0.020 C 
HETATM   28  O   UNL     1       9.617  20.502 -34.043  1.00  0.00    -0.293 OA
HETATM   29  O   UNL     1      11.854  20.625 -33.425  1.00  0.00    -0.259 OA
ENDBRANCH   5   8
TORSDOF 1
ENDMDL
MODEL 5
REMARK VINA RESULT:      -7.2     26.847     29.546
REMARK  1 active torsions:
REMARK  status: ('A' for Active; 'I' for Inactive)
REMARK    1  A    between atoms: C_5  and  C_6 
ROOT
HETATM    1  C   UNL     1      28.155  -6.255 -15.714  1.00  0.00     0.048 C 
HETATM    2  C   UNL     1      27.754  -5.618 -16.996  1.00  0.00    -0.062 A 
HETATM    3  C   UNL     1      28.708  -5.194 -17.942  1.00  0.00     0.007 A 
HETATM    4  C   UNL     1      28.310  -4.655 -19.169  1.00  0.00     0.010 A 
HETATM    5  C   UNL     1      26.946  -4.480 -19.465  1.00  0.00    -0.030 A 
HETATM    6  C   UNL     1      25.997  -4.888 -18.508  1.00  0.00     0.010 A 
HETATM    7  C   UNL     1      26.404  -5.454 -17.303  1.00  0.00     0.007 A 
ENDROOT
BRANCH   5   8
HETATM    8  C   UNL     1      26.454  -3.954 -20.825  1.00  0.00     0.167 A 
HETATM    9  C   UNL     1      26.806  -4.896 -21.933  1.00  0.00     0.074 A 
HETATM   10  C   UNL     1      27.434  -4.538 -23.065  1.00  0.00     0.084 A 
HETATM   11  C   UNL     1      26.718  -6.336 -21.639  1.00  0.00     0.295 C 
HETATM   12  N   UNL     1      27.916  -3.269 -23.295  1.00  0.00    -0.223 NA
HETATM   13  C   UNL     1      27.962  -5.674 -23.824  1.00  0.00     0.014 C 
HETATM   14  C   UNL     1      27.728  -2.441 -22.314  1.00  0.00     0.175 A 
HETATM   15  S   UNL     1      28.474  -0.825 -22.331  1.00  0.00    -0.050 SA
HETATM   16  N   UNL     1      27.012  -2.642 -21.145  1.00  0.00    -0.311 N 
HETATM   17  C   UNL     1      27.770  -0.465 -20.728  1.00  0.00     0.035 A 
HETATM   18  C   UNL     1      27.950   0.677 -19.961  1.00  0.00     0.021 A 
HETATM   19  C   UNL     1      26.969  -1.535 -20.293  1.00  0.00     0.055 A 
HETATM   20  C   UNL     1      27.269   0.776 -18.747  1.00  0.00     0.002 A 
HETATM   21  C   UNL     1      26.419  -0.254 -18.326  1.00  0.00     0.002 A 
HETATM   22  C   UNL     1      26.266  -1.409 -19.100  1.00  0.00     0.031 A 
HETATM   23  C   UNL     1      27.482  -6.193 -25.023  1.00  0.00     0.013 C 
HETATM   24  C   UNL     1      28.737  -6.522 -23.034  1.00  0.00     0.158 C 
HETATM   25  C   UNL     1      27.835  -7.508 -25.392  1.00  0.00     0.001 C 
HETATM   26  C   UNL     1      28.813  -8.207 -24.684  1.00  0.00    -0.001 C 
HETATM   27  C   UNL     1      29.409  -7.596 -23.594  1.00  0.00     0.020 C 
HETATM   28  O   UNL     1      27.951  -6.958 -21.838  1.00  0.00    -0.293 OA
HETATM   29  O   UNL     1      25.725  -6.876 -21.176  1.00  0.00    -0.259 OA
ENDBRANCH   5   8
TORSDOF 1
ENDMDL
MODEL 6
REMARK VINA RESULT:      -7.2      3.452      6.543
REMARK  1 active torsions:
REMARK  status: ('A' for Active; 'I' for Inactive)
REMARK    1  A    between atoms: C_5  and  C_6 
ROOT
HETATM    1  C   UNL     1      11.128  15.067 -28.822  1.00  0.00     0.048 C 
HETATM    2  C   UNL     1      11.314  16.449 -29.338  1.00  0.00    -0.062 A 
HETATM    3  C   UNL     1      12.595  17.008 -29.510  1.00  0.00     0.007 A 
HETATM    4  C   UNL     1      12.751  18.286 -30.056  1.00  0.00     0.010 A 
HETATM    5  C   UNL     1      11.628  19.058 -30.402  1.00  0.00    -0.030 A 
HETATM    6  C   UNL     1      10.349  18.502 -30.211  1.00  0.00     0.010 A 
HETATM    7  C   UNL     1      10.206  17.216 -29.697  1.00  0.00     0.007 A 
ENDROOT
BRANCH   5   8
HETATM    8  C   UNL     1      11.747  20.442 -31.067  1.00  0.00     0.167 A 
HETATM    9  C   UNL     1      11.116  21.506 -30.225  1.00  0.00     0.074 A 
HETATM   10  C   UNL     1      10.214  22.394 -30.674  1.00  0.00     0.084 A 
HETATM   11  C   UNL     1      11.276  21.387 -28.767  1.00  0.00     0.295 C 
HETATM   12  N   UNL     1       9.690  22.366 -31.947  1.00  0.00    -0.223 NA
HETATM   13  C   UNL     1       9.504  23.097 -29.602  1.00  0.00     0.014 C 
HETATM   14  C   UNL     1      10.129  21.391 -32.682  1.00  0.00     0.175 A 
HETATM   15  S   UNL     1       9.407  21.055 -34.274  1.00  0.00    -0.050 SA
HETATM   16  N   UNL     1      11.126  20.475 -32.389  1.00  0.00    -0.311 N 
HETATM   17  C   UNL     1      10.507  19.665 -34.497  1.00  0.00     0.035 A 
HETATM   18  C   UNL     1      10.535  18.769 -35.558  1.00  0.00     0.021 A 
HETATM   19  C   UNL     1      11.392  19.560 -33.411  1.00  0.00     0.055 A 
HETATM   20  C   UNL     1      11.510  17.771 -35.557  1.00  0.00     0.002 A 
HETATM   21  C   UNL     1      12.439  17.689 -34.514  1.00  0.00     0.002 A 
HETATM   22  C   UNL     1      12.383  18.585 -33.441  1.00  0.00     0.031 A 
HETATM   23  C   UNL     1       9.653  24.424 -29.211  1.00  0.00     0.013 C 
HETATM   24  C   UNL     1       8.963  22.219 -28.664  1.00  0.00     0.158 C 
HETATM   25  C   UNL     1       9.214  24.815 -27.929  1.00  0.00     0.001 C 
HETATM   26  C   UNL     1       8.455  23.948 -27.141  1.00  0.00    -0.001 C 
HETATM   27  C   UNL     1       8.166  22.686 -27.632  1.00  0.00     0.020 C 
HETATM   28  O   UNL     1      10.033  21.318 -28.137  1.00  0.00    -0.293 OA
HETATM   29  O   UNL     1      12.355  21.255 -28.210  1.00  0.00    -0.259 OA
ENDBRANCH   5   8
TORSDOF 1
ENDMDL
MODEL 7
REMARK VINA RESULT:      -7.0     25.836     27.407
REMARK  1 active torsions:
REMARK  status: ('A' for Active; 'I' for Inactive)
REMARK    1  A    between atoms: C_5  and  C_6 
ROOT
HETATM    1  C   UNL     1      31.511   2.432 -19.798  1.00  0.00     0.048 C 
HETATM    2  C   UNL     1      30.640   1.530 -20.596  1.00  0.00    -0.062 A 
HETATM    3  C   UNL     1      30.778   0.129 -20.543  1.00  0.00     0.007 A 
HETATM    4  C   UNL     1      29.908  -0.704 -21.252  1.00  0.00     0.010 A 
HETATM    5  C   UNL     1      28.903  -0.158 -22.071  1.00  0.00    -0.030 A 
HETATM    6  C   UNL     1      28.781   1.243 -22.136  1.00  0.00     0.010 A 
HETATM    7  C   UNL     1      29.633   2.062 -21.400  1.00  0.00     0.007 A 
ENDROOT
BRANCH   5   8
HETATM    8  C   UNL     1      27.879  -1.031 -22.819  1.00  0.00     0.167 A 
HETATM    9  C   UNL     1      27.052  -1.836 -21.867  1.00  0.00     0.074 A 
HETATM   10  C   UNL     1      26.863  -3.163 -21.958  1.00  0.00     0.084 A 
HETATM   11  C   UNL     1      26.666  -1.188 -20.603  1.00  0.00     0.295 C 
HETATM   12  N   UNL     1      27.493  -3.955 -22.892  1.00  0.00    -0.223 NA
HETATM   13  C   UNL     1      26.312  -3.760 -20.740  1.00  0.00     0.014 C 
HETATM   14  C   UNL     1      28.305  -3.314 -23.675  1.00  0.00     0.175 A 
HETATM   15  S   UNL     1      29.375  -4.192 -24.794  1.00  0.00    -0.050 SA
HETATM   16  N   UNL     1      28.516  -1.947 -23.761  1.00  0.00    -0.311 N 
HETATM   17  C   UNL     1      30.078  -2.650 -25.358  1.00  0.00     0.035 A 
HETATM   18  C   UNL     1      31.110  -2.473 -26.270  1.00  0.00     0.021 A 
HETATM   19  C   UNL     1      29.441  -1.563 -24.735  1.00  0.00     0.055 A 
HETATM   20  C   UNL     1      31.482  -1.171 -26.607  1.00  0.00     0.002 A 
HETATM   21  C   UNL     1      30.817  -0.076 -26.042  1.00  0.00     0.002 A 
HETATM   22  C   UNL     1      29.794  -0.271 -25.108  1.00  0.00     0.031 A 
HETATM   23  C   UNL     1      25.023  -4.246 -20.539  1.00  0.00     0.013 C 
HETATM   24  C   UNL     1      27.038  -3.405 -19.603  1.00  0.00     0.158 C 
HETATM   25  C   UNL     1      24.544  -4.396 -19.220  1.00  0.00     0.001 C 
HETATM   26  C   UNL     1      25.406  -4.264 -18.131  1.00  0.00    -0.001 C 
HETATM   27  C   UNL     1      26.734  -3.954 -18.368  1.00  0.00     0.020 C 
HETATM   28  O   UNL     1      27.135  -1.916 -19.509  1.00  0.00    -0.293 OA
HETATM   29  O   UNL     1      26.109  -0.102 -20.538  1.00  0.00    -0.259 OA
ENDBRANCH   5   8
TORSDOF 1
ENDMDL
MODEL 8
REMARK VINA RESULT:      -7.0     25.687     28.902
REMARK  1 active torsions:
REMARK  status: ('A' for Active; 'I' for Inactive)
REMARK    1  A    between atoms: C_5  and  C_6 
ROOT
HETATM    1  C   UNL     1      31.543  -4.303 -25.330  1.00  0.00     0.048 C 
HETATM    2  C   UNL     1      30.337  -4.179 -24.469  1.00  0.00    -0.062 A 
HETATM    3  C   UNL     1      30.437  -4.030 -23.072  1.00  0.00     0.007 A 
HETATM    4  C   UNL     1      29.294  -3.851 -22.288  1.00  0.00     0.010 A 
HETATM    5  C   UNL     1      28.015  -3.865 -22.873  1.00  0.00    -0.030 A 
HETATM    6  C   UNL     1      27.919  -4.034 -24.267  1.00  0.00     0.010 A 
HETATM    7  C   UNL     1      29.067  -4.178 -25.043  1.00  0.00     0.007 A 
ENDROOT
BRANCH   5   8
HETATM    8  C   UNL     1      26.731  -3.607 -22.064  1.00  0.00     0.167 A 
HETATM    9  C   UNL     1      26.730  -2.235 -21.466  1.00  0.00     0.074 A 
HETATM   10  C   UNL     1      26.494  -1.971 -20.170  1.00  0.00     0.084 A 
HETATM   11  C   UNL     1      27.303  -1.151 -22.280  1.00  0.00     0.295 C 
HETATM   12  N   UNL     1      26.319  -2.949 -19.217  1.00  0.00    -0.223 NA
HETATM   13  C   UNL     1      26.882  -0.616 -19.771  1.00  0.00     0.014 C 
HETATM   14  C   UNL     1      26.417  -4.160 -19.672  1.00  0.00     0.175 A 
HETATM   15  S   UNL     1      26.444  -5.550 -18.560  1.00  0.00    -0.050 SA
HETATM   16  N   UNL     1      26.552  -4.576 -20.986  1.00  0.00    -0.311 N 
HETATM   17  C   UNL     1      26.630  -6.670 -19.939  1.00  0.00     0.035 A 
HETATM   18  C   UNL     1      26.794  -8.048 -19.895  1.00  0.00     0.021 A 
HETATM   19  C   UNL     1      26.600  -5.963 -21.153  1.00  0.00     0.055 A 
HETATM   20  C   UNL     1      26.880  -8.745 -21.100  1.00  0.00     0.002 A 
HETATM   21  C   UNL     1      26.791  -8.064 -22.320  1.00  0.00     0.002 A 
HETATM   22  C   UNL     1      26.648  -6.673 -22.348  1.00  0.00     0.031 A 
HETATM   23  C   UNL     1      26.045   0.455 -19.471  1.00  0.00     0.013 C 
HETATM   24  C   UNL     1      28.190  -0.310 -20.145  1.00  0.00     0.158 C 
HETATM   25  C   UNL     1      26.565   1.766 -19.513  1.00  0.00     0.001 C 
HETATM   26  C   UNL     1      27.937   1.983 -19.646  1.00  0.00    -0.001 C 
HETATM   27  C   UNL     1      28.774   0.887 -19.764  1.00  0.00     0.020 C 
HETATM   28  O   UNL     1      28.364  -0.538 -21.612  1.00  0.00    -0.293 OA
HETATM   29  O   UNL     1      26.961  -0.909 -23.427  1.00  0.00    -0.259 OA
ENDBRANCH   5   8
TORSDOF 1
ENDMDL
MODEL 9
REMARK VINA RESULT:      -6.9     26.526     30.424
REMARK  1 active torsions:
REMARK  status: ('A' for Active; 'I' for Inactive)
REMARK    1  A    between atoms: C_5  and  C_6 
ROOT
HETATM    1  C   UNL     1       0.350  -9.968 -21.509  1.00  0.00     0.048 C 
HETATM    2  C   UNL     1      -0.048  -9.026 -22.589  1.00  0.00    -0.062 A 
HETATM    3  C   UNL     1       0.310  -9.245 -23.933  1.00  0.00     0.007 A 
HETATM    4  C   UNL     1      -0.127  -8.382 -24.941  1.00  0.00     0.010 A 
HETATM    5  C   UNL     1      -0.897  -7.247 -24.627  1.00  0.00    -0.030 A 
HETATM    6  C   UNL     1      -1.236  -7.021 -23.280  1.00  0.00     0.010 A 
HETATM    7  C   UNL     1      -0.822  -7.906 -22.287  1.00  0.00     0.007 A 
ENDROOT
BRANCH   5   8
HETATM    8  C   UNL     1      -1.458  -6.302 -25.705  1.00  0.00     0.167 A 
HETATM    9  C   UNL     1      -2.411  -7.016 -26.611  1.00  0.00     0.074 A 
HETATM   10  C   UNL     1      -2.340  -7.002 -27.953  1.00  0.00     0.084 A 
HETATM   11  C   UNL     1      -3.295  -8.019 -25.996  1.00  0.00     0.295 C 
HETATM   12  N   UNL     1      -1.316  -6.401 -28.650  1.00  0.00    -0.223 NA
HETATM   13  C   UNL     1      -3.159  -8.034 -28.592  1.00  0.00     0.014 C 
HETATM   14  C   UNL     1      -0.406  -5.859 -27.901  1.00  0.00     0.175 A 
HETATM   15  S   UNL     1       1.102  -5.233 -28.609  1.00  0.00    -0.050 SA
HETATM   16  N   UNL     1      -0.404  -5.709 -26.524  1.00  0.00    -0.311 N 
HETATM   17  C   UNL     1       1.692  -4.772 -26.987  1.00  0.00     0.035 A 
HETATM   18  C   UNL     1       2.924  -4.225 -26.658  1.00  0.00     0.021 A 
HETATM   19  C   UNL     1       0.716  -5.048 -26.014  1.00  0.00     0.055 A 
HETATM   20  C   UNL     1       3.169  -3.896 -25.324  1.00  0.00     0.002 A 
HETATM   21  C   UNL     1       2.186  -4.107 -24.350  1.00  0.00     0.002 A 
HETATM   22  C   UNL     1       0.957  -4.680 -24.694  1.00  0.00     0.031 A 
HETATM   23  C   UNL     1      -4.344  -7.861 -29.301  1.00  0.00     0.013 C 
HETATM   24  C   UNL     1      -2.920  -9.301 -28.062  1.00  0.00     0.158 C 
HETATM   25  C   UNL     1      -5.202  -8.966 -29.485  1.00  0.00     0.001 C 
HETATM   26  C   UNL     1      -4.784 -10.254 -29.150  1.00  0.00    -0.001 C 
HETATM   27  C   UNL     1      -3.522 -10.423 -28.607  1.00  0.00     0.020 C 
HETATM   28  O   UNL     1      -3.103  -9.273 -26.578  1.00  0.00    -0.293 OA
HETATM   29  O   UNL     1      -4.010  -7.795 -25.031  1.00  0.00    -0.259 OA
ENDBRANCH   5   8
TORSDOF 1
ENDMDL
