MODEL 1
REMARK VINA RESULT:     -10.2      0.000      0.000
REMARK  1 active torsions:
REMARK  status: ('A' for Active; 'I' for Inactive)
REMARK    1  A    between atoms: C_21  and  C_22 
ROOT
HETATM    1  O   UNL     1       7.608  16.049 -31.119  1.00  0.00    -0.259 OA
HETATM    2  C   UNL     1       8.589  15.650 -30.506  1.00  0.00     0.299 C 
HETATM    3  O   UNL     1       8.683  14.358 -30.007  1.00  0.00    -0.274 OA
HETATM    4  C   UNL     1       9.369  14.294 -28.789  1.00  0.00     0.092 C 
HETATM    5  C   UNL     1       8.893  13.389 -27.854  1.00  0.00     0.038 C 
HETATM    6  C   UNL     1       9.102  13.683 -26.518  1.00  0.00     0.003 C 
HETATM    7  C   UNL     1      10.068  14.626 -26.166  1.00  0.00     0.001 C 
HETATM    8  C   UNL     1      10.789  15.304 -27.158  1.00  0.00     0.017 C 
HETATM    9  C   UNL     1      10.375  15.208 -28.486  1.00  0.00     0.028 C 
HETATM   10  C   UNL     1      10.813  16.096 -29.564  1.00  0.00     0.087 C 
HETATM   11  N   UNL     1      12.092  16.602 -29.617  1.00  0.00    -0.223 NA
HETATM   12  C   UNL     1      12.349  17.292 -30.689  1.00  0.00     0.175 A 
HETATM   13  S   UNL     1      13.974  17.896 -31.036  1.00  0.00    -0.050 SA
HETATM   14  C   UNL     1      13.390  18.654 -32.549  1.00  0.00     0.035 A 
HETATM   15  C   UNL     1      14.112  19.395 -33.467  1.00  0.00     0.021 A 
HETATM   16  C   UNL     1      13.436  19.936 -34.567  1.00  0.00     0.002 A 
HETATM   17  C   UNL     1      12.066  19.725 -34.738  1.00  0.00     0.002 A 
HETATM   18  C   UNL     1      11.354  18.954 -33.818  1.00  0.00     0.031 A 
HETATM   19  C   UNL     1      12.016  18.426 -32.714  1.00  0.00     0.055 A 
HETATM   20  N   UNL     1      11.460  17.655 -31.697  1.00  0.00    -0.311 N 
HETATM   21  C   UNL     1      10.046  17.435 -31.506  1.00  0.00     0.167 C 
HETATM   22  C   UNL     1       9.861  16.392 -30.466  1.00  0.00     0.075 C 
ENDROOT
BRANCH  21  23
HETATM   23  C   UNL     1       9.343  18.769 -31.175  1.00  0.00    -0.030 A 
HETATM   24  C   UNL     1       9.543  19.369 -29.919  1.00  0.00     0.011 A 
HETATM   25  C   UNL     1       8.832  20.512 -29.549  1.00  0.00     0.024 A 
HETATM   26  C   UNL     1       7.928  21.082 -30.441  1.00  0.00     0.034 A 
HETATM   27 CL   UNL     1       7.029  22.471 -29.968  1.00  0.00    -0.084 Cl
HETATM   28  C   UNL     1       7.740  20.530 -31.704  1.00  0.00     0.024 A 
HETATM   29  C   UNL     1       8.442  19.377 -32.071  1.00  0.00     0.011 A 
ENDBRANCH  21  23
TORSDOF 1
ENDMDL
MODEL 2
REMARK VINA RESULT:      -8.7      2.945      4.217
REMARK  1 active torsions:
REMARK  status: ('A' for Active; 'I' for Inactive)
REMARK    1  A    between atoms: C_21  and  C_22 
ROOT
HETATM    1  O   UNL     1      11.209  16.793 -28.542  1.00  0.00    -0.259 OA
HETATM    2  C   UNL     1      11.792  16.191 -29.434  1.00  0.00     0.299 C 
HETATM    3  O   UNL     1      12.100  14.840 -29.346  1.00  0.00    -0.274 OA
HETATM    4  C   UNL     1      13.320  14.520 -29.952  1.00  0.00     0.092 C 
HETATM    5  C   UNL     1      14.095  13.560 -29.321  1.00  0.00     0.038 C 
HETATM    6  C   UNL     1      15.466  13.634 -29.491  1.00  0.00     0.003 C 
HETATM    7  C   UNL     1      15.987  14.389 -30.543  1.00  0.00     0.001 C 
HETATM    8  C   UNL     1      15.131  15.104 -31.392  1.00  0.00     0.017 C 
HETATM    9  C   UNL     1      13.790  15.247 -31.042  1.00  0.00     0.028 C 
HETATM   10  C   UNL     1      12.870  16.216 -31.642  1.00  0.00     0.087 C 
HETATM   11  N   UNL     1      12.937  16.559 -32.972  1.00  0.00    -0.223 NA
HETATM   12  C   UNL     1      11.988  17.355 -33.368  1.00  0.00     0.175 A 
HETATM   13  S   UNL     1      11.792  17.791 -35.070  1.00  0.00    -0.050 SA
HETATM   14  C   UNL     1      10.387  18.823 -34.663  1.00  0.00     0.035 A 
HETATM   15  C   UNL     1       9.613  19.588 -35.517  1.00  0.00     0.021 A 
HETATM   16  C   UNL     1       8.580  20.359 -34.972  1.00  0.00     0.002 A 
HETATM   17  C   UNL     1       8.331  20.349 -33.597  1.00  0.00     0.002 A 
HETATM   18  C   UNL     1       9.102  19.553 -32.750  1.00  0.00     0.031 A 
HETATM   19  C   UNL     1      10.140  18.795 -33.283  1.00  0.00     0.055 A 
HETATM   20  N   UNL     1      11.012  17.965 -32.585  1.00  0.00    -0.311 N 
HETATM   21  C   UNL     1      11.118  17.901 -31.146  1.00  0.00     0.167 C 
HETATM   22  C   UNL     1      11.986  16.753 -30.782  1.00  0.00     0.075 C 
ENDROOT
BRANCH  21  23
HETATM   23  C   UNL     1      11.615  19.253 -30.591  1.00  0.00    -0.030 A 
HETATM   24  C   UNL     1      10.791  19.997 -29.729  1.00  0.00     0.011 A 
HETATM   25  C   UNL     1      11.165  21.274 -29.304  1.00  0.00     0.024 A 
HETATM   26  C   UNL     1      12.379  21.812 -29.721  1.00  0.00     0.034 A 
HETATM   27 CL   UNL     1      12.821  23.399 -29.224  1.00  0.00    -0.084 Cl
HETATM   28  C   UNL     1      13.229  21.081 -30.544  1.00  0.00     0.024 A 
HETATM   29  C   UNL     1      12.850  19.807 -30.980  1.00  0.00     0.011 A 
ENDBRANCH  21  23
TORSDOF 1
ENDMDL
MODEL 3
REMARK VINA RESULT:      -8.5      3.073      5.938
REMARK  1 active torsions:
REMARK  status: ('A' for Active; 'I' for Inactive)
REMARK    1  A    between atoms: C_21  and  C_22 
ROOT
HETATM    1  O   UNL     1       8.248  19.195 -29.688  1.00  0.00    -0.259 OA
HETATM    2  C   UNL     1       9.316  19.764 -29.512  1.00  0.00     0.299 C 
HETATM    3  O   UNL     1       9.432  20.910 -28.736  1.00  0.00    -0.274 OA
HETATM    4  C   UNL     1      10.389  21.805 -29.229  1.00  0.00     0.092 C 
HETATM    5  C   UNL     1      10.089  23.154 -29.125  1.00  0.00     0.038 C 
HETATM    6  C   UNL     1      10.640  24.004 -30.068  1.00  0.00     0.003 C 
HETATM    7  C   UNL     1      11.731  23.575 -30.825  1.00  0.00     0.001 C 
HETATM    8  C   UNL     1      12.237  22.277 -30.664  1.00  0.00     0.017 C 
HETATM    9  C   UNL     1      11.504  21.348 -29.926  1.00  0.00     0.028 C 
HETATM   10  C   UNL     1      11.731  19.902 -29.944  1.00  0.00     0.087 C 
HETATM   11  N   UNL     1      12.992  19.363 -30.058  1.00  0.00    -0.223 NA
HETATM   12  C   UNL     1      13.030  18.067 -29.957  1.00  0.00     0.175 A 
HETATM   13  S   UNL     1      14.561  17.185 -29.915  1.00  0.00    -0.050 SA
HETATM   14  C   UNL     1      13.683  15.629 -29.793  1.00  0.00     0.035 A 
HETATM   15  C   UNL     1      14.212  14.352 -29.724  1.00  0.00     0.021 A 
HETATM   16  C   UNL     1      13.331  13.267 -29.679  1.00  0.00     0.002 A 
HETATM   17  C   UNL     1      11.948  13.468 -29.694  1.00  0.00     0.002 A 
HETATM   18  C   UNL     1      11.428  14.761 -29.738  1.00  0.00     0.031 A 
HETATM   19  C   UNL     1      12.298  15.846 -29.798  1.00  0.00     0.055 A 
HETATM   20  N   UNL     1      11.952  17.192 -29.864  1.00  0.00    -0.311 N 
HETATM   21  C   UNL     1      10.614  17.691 -30.084  1.00  0.00     0.167 C 
HETATM   22  C   UNL     1      10.612  19.160 -29.869  1.00  0.00     0.075 C 
ENDROOT
BRANCH  21  23
HETATM   23  C   UNL     1      10.116  17.271 -31.484  1.00  0.00    -0.030 A 
HETATM   24  C   UNL     1      10.741  17.791 -32.631  1.00  0.00     0.011 A 
HETATM   25  C   UNL     1      10.240  17.520 -33.906  1.00  0.00     0.024 A 
HETATM   26  C   UNL     1       9.119  16.707 -34.049  1.00  0.00     0.034 A 
HETATM   27 CL   UNL     1       8.484  16.403 -35.619  1.00  0.00    -0.084 Cl
HETATM   28  C   UNL     1       8.505  16.149 -32.932  1.00  0.00     0.024 A 
HETATM   29  C   UNL     1       8.999  16.430 -31.653  1.00  0.00     0.011 A 
ENDBRANCH  21  23
TORSDOF 1
ENDMDL
MODEL 4
REMARK VINA RESULT:      -8.0      3.414      5.008
REMARK  1 active torsions:
REMARK  status: ('A' for Active; 'I' for Inactive)
REMARK    1  A    between atoms: C_21  and  C_22 
ROOT
HETATM    1  O   UNL     1      14.775  17.884 -32.277  1.00  0.00    -0.259 OA
HETATM    2  C   UNL     1      14.176  17.438 -31.307  1.00  0.00     0.299 C 
HETATM    3  O   UNL     1      14.804  16.690 -30.321  1.00  0.00    -0.274 OA
HETATM    4  C   UNL     1      13.987  15.681 -29.799  1.00  0.00     0.092 C 
HETATM    5  C   UNL     1      14.603  14.479 -29.490  1.00  0.00     0.038 C 
HETATM    6  C   UNL     1      13.833  13.332 -29.559  1.00  0.00     0.003 C 
HETATM    7  C   UNL     1      12.441  13.437 -29.557  1.00  0.00     0.001 C 
HETATM    8  C   UNL     1      11.828  14.698 -29.533  1.00  0.00     0.017 C 
HETATM    9  C   UNL     1      12.604  15.836 -29.749  1.00  0.00     0.028 C 
HETATM   10  C   UNL     1      12.070  17.161 -30.072  1.00  0.00     0.087 C 
HETATM   11  N   UNL     1      10.889  17.622 -29.539  1.00  0.00    -0.223 NA
HETATM   12  C   UNL     1      10.607  18.853 -29.847  1.00  0.00     0.175 A 
HETATM   13  S   UNL     1       9.222  19.694 -29.139  1.00  0.00    -0.050 SA
HETATM   14  C   UNL     1       9.608  21.164 -30.084  1.00  0.00     0.035 A 
HETATM   15  C   UNL     1       8.929  22.370 -30.105  1.00  0.00     0.021 A 
HETATM   16  C   UNL     1       9.386  23.378 -30.960  1.00  0.00     0.002 A 
HETATM   17  C   UNL     1      10.507  23.176 -31.768  1.00  0.00     0.002 A 
HETATM   18  C   UNL     1      11.198  21.966 -31.719  1.00  0.00     0.031 A 
HETATM   19  C   UNL     1      10.742  20.952 -30.883  1.00  0.00     0.055 A 
HETATM   20  N   UNL     1      11.296  19.685 -30.724  1.00  0.00    -0.311 N 
HETATM   21  C   UNL     1      12.336  19.129 -31.559  1.00  0.00     0.167 C 
HETATM   22  C   UNL     1      12.812  17.863 -30.946  1.00  0.00     0.075 C 
ENDROOT
BRANCH  21  23
HETATM   23  C   UNL     1      11.821  18.962 -33.004  1.00  0.00    -0.030 A 
HETATM   24  C   UNL     1      10.841  17.995 -33.287  1.00  0.00     0.011 A 
HETATM   25  C   UNL     1      10.441  17.742 -34.601  1.00  0.00     0.024 A 
HETATM   26  C   UNL     1      11.002  18.469 -35.646  1.00  0.00     0.034 A 
HETATM   27 CL   UNL     1      10.533  18.131 -37.266  1.00  0.00    -0.084 Cl
HETATM   28  C   UNL     1      11.947  19.458 -35.389  1.00  0.00     0.024 A 
HETATM   29  C   UNL     1      12.357  19.704 -34.075  1.00  0.00     0.011 A 
ENDBRANCH  21  23
TORSDOF 1
ENDMDL
MODEL 5
REMARK VINA RESULT:      -7.8      3.321      7.067
REMARK  1 active torsions:
REMARK  status: ('A' for Active; 'I' for Inactive)
REMARK    1  A    between atoms: C_21  and  C_22 
ROOT
HETATM    1  O   UNL     1      12.066  21.149 -31.833  1.00  0.00    -0.259 OA
HETATM    2  C   UNL     1      13.219  20.740 -31.821  1.00  0.00     0.299 C 
HETATM    3  O   UNL     1      14.306  21.575 -31.600  1.00  0.00    -0.274 OA
HETATM    4  C   UNL     1      15.435  21.205 -32.339  1.00  0.00     0.092 C 
HETATM    5  C   UNL     1      16.211  22.234 -32.848  1.00  0.00     0.038 C 
HETATM    6  C   UNL     1      16.920  21.985 -34.009  1.00  0.00     0.003 C 
HETATM    7  C   UNL     1      17.139  20.667 -34.410  1.00  0.00     0.001 C 
HETATM    8  C   UNL     1      16.605  19.604 -33.668  1.00  0.00     0.017 C 
HETATM    9  C   UNL     1      15.666  19.873 -32.673  1.00  0.00     0.028 C 
HETATM   10  C   UNL     1      14.797  18.871 -32.053  1.00  0.00     0.087 C 
HETATM   11  N   UNL     1      15.222  17.584 -31.814  1.00  0.00    -0.223 NA
HETATM   12  C   UNL     1      14.365  16.850 -31.168  1.00  0.00     0.175 A 
HETATM   13  S   UNL     1      14.770  15.219 -30.617  1.00  0.00    -0.050 SA
HETATM   14  C   UNL     1      13.131  15.026 -29.924  1.00  0.00     0.035 A 
HETATM   15  C   UNL     1      12.603  13.927 -29.271  1.00  0.00     0.021 A 
HETATM   16  C   UNL     1      11.271  13.978 -28.846  1.00  0.00     0.002 A 
HETATM   17  C   UNL     1      10.494  15.118 -29.069  1.00  0.00     0.002 A 
HETATM   18  C   UNL     1      11.046  16.230 -29.705  1.00  0.00     0.031 A 
HETATM   19  C   UNL     1      12.365  16.181 -30.144  1.00  0.00     0.055 A 
HETATM   20  N   UNL     1      13.063  17.185 -30.808  1.00  0.00    -0.311 N 
HETATM   21  C   UNL     1      12.471  18.391 -31.338  1.00  0.00     0.167 C 
HETATM   22  C   UNL     1      13.557  19.306 -31.770  1.00  0.00     0.075 C 
ENDROOT
BRANCH  21  23
HETATM   23  C   UNL     1      11.474  18.040 -32.463  1.00  0.00    -0.030 A 
HETATM   24  C   UNL     1      10.106  18.319 -32.295  1.00  0.00     0.011 A 
HETATM   25  C   UNL     1       9.169  17.909 -33.245  1.00  0.00     0.024 A 
HETATM   26  C   UNL     1       9.591  17.233 -34.386  1.00  0.00     0.034 A 
HETATM   27 CL   UNL     1       8.429  16.699 -35.537  1.00  0.00    -0.084 Cl
HETATM   28  C   UNL     1      10.943  16.978 -34.594  1.00  0.00     0.024 A 
HETATM   29  C   UNL     1      11.882  17.378 -33.638  1.00  0.00     0.011 A 
ENDBRANCH  21  23
TORSDOF 1
ENDMDL
MODEL 6
REMARK VINA RESULT:      -7.7      3.386      4.928
REMARK  1 active torsions:
REMARK  status: ('A' for Active; 'I' for Inactive)
REMARK    1  A    between atoms: C_21  and  C_22 
ROOT
HETATM    1  O   UNL     1      11.998  19.690 -29.571  1.00  0.00    -0.259 OA
HETATM    2  C   UNL     1      11.533  18.657 -30.033  1.00  0.00     0.299 C 
HETATM    3  O   UNL     1      10.713  17.812 -29.298  1.00  0.00    -0.274 OA
HETATM    4  C   UNL     1      10.910  16.461 -29.603  1.00  0.00     0.092 C 
HETATM    5  C   UNL     1      10.838  15.567 -28.546  1.00  0.00     0.038 C 
HETATM    6  C   UNL     1      11.577  14.402 -28.644  1.00  0.00     0.003 C 
HETATM    7  C   UNL     1      12.044  13.988 -29.892  1.00  0.00     0.001 C 
HETATM    8  C   UNL     1      11.807  14.771 -31.031  1.00  0.00     0.017 C 
HETATM    9  C   UNL     1      11.315  16.066 -30.876  1.00  0.00     0.028 C 
HETATM   10  C   UNL     1      11.327  17.094 -31.918  1.00  0.00     0.087 C 
HETATM   11  N   UNL     1      11.134  16.789 -33.246  1.00  0.00    -0.223 NA
HETATM   12  C   UNL     1      11.074  17.825 -34.030  1.00  0.00     0.175 A 
HETATM   13  S   UNL     1      10.672  17.669 -35.744  1.00  0.00    -0.050 SA
HETATM   14  C   UNL     1      10.837  19.438 -35.962  1.00  0.00     0.035 A 
HETATM   15  C   UNL     1      10.681  20.174 -37.124  1.00  0.00     0.021 A 
HETATM   16  C   UNL     1      10.902  21.555 -37.074  1.00  0.00     0.002 A 
HETATM   17  C   UNL     1      11.265  22.177 -35.876  1.00  0.00     0.002 A 
HETATM   18  C   UNL     1      11.393  21.428 -34.707  1.00  0.00     0.031 A 
HETATM   19  C   UNL     1      11.189  20.052 -34.751  1.00  0.00     0.055 A 
HETATM   20  N   UNL     1      11.292  19.157 -33.691  1.00  0.00    -0.311 N 
HETATM   21  C   UNL     1      11.829  19.478 -32.389  1.00  0.00     0.167 C 
HETATM   22  C   UNL     1      11.568  18.340 -31.472  1.00  0.00     0.075 C 
ENDROOT
BRANCH  21  23
HETATM   23  C   UNL     1      13.324  19.845 -32.509  1.00  0.00    -0.030 A 
HETATM   24  C   UNL     1      14.252  18.865 -32.902  1.00  0.00     0.011 A 
HETATM   25  C   UNL     1      15.622  19.136 -32.907  1.00  0.00     0.024 A 
HETATM   26  C   UNL     1      16.078  20.400 -32.540  1.00  0.00     0.034 A 
HETATM   27 CL   UNL     1      17.768  20.720 -32.515  1.00  0.00    -0.084 Cl
HETATM   28  C   UNL     1      15.176  21.398 -32.184  1.00  0.00     0.024 A 
HETATM   29  C   UNL     1      13.805  21.124 -32.166  1.00  0.00     0.011 A 
ENDBRANCH  21  23
TORSDOF 1
ENDMDL
MODEL 7
REMARK VINA RESULT:      -7.7     24.051     27.900
REMARK  1 active torsions:
REMARK  status: ('A' for Active; 'I' for Inactive)
REMARK    1  A    between atoms: C_21  and  C_22 
ROOT
HETATM    1  O   UNL     1      -3.617  -7.022 -24.439  1.00  0.00    -0.259 OA
HETATM    2  C   UNL     1      -3.392  -7.226 -25.624  1.00  0.00     0.299 C 
HETATM    3  O   UNL     1      -4.403  -7.322 -26.570  1.00  0.00    -0.274 OA
HETATM    4  C   UNL     1      -4.121  -8.254 -27.575  1.00  0.00     0.092 C 
HETATM    5  C   UNL     1      -5.186  -9.008 -28.042  1.00  0.00     0.038 C 
HETATM    6  C   UNL     1      -4.906 -10.270 -28.536  1.00  0.00     0.003 C 
HETATM    7  C   UNL     1      -3.597 -10.591 -28.896  1.00  0.00     0.001 C 
HETATM    8  C   UNL     1      -2.565  -9.660 -28.716  1.00  0.00     0.017 C 
HETATM    9  C   UNL     1      -2.808  -8.512 -27.963  1.00  0.00     0.028 C 
HETATM   10  C   UNL     1      -1.770  -7.632 -27.424  1.00  0.00     0.087 C 
HETATM   11  N   UNL     1      -0.602  -7.379 -28.106  1.00  0.00    -0.223 NA
HETATM   12  C   UNL     1       0.169  -6.499 -27.538  1.00  0.00     0.175 A 
HETATM   13  S   UNL     1       1.639  -5.909 -28.322  1.00  0.00    -0.050 SA
HETATM   14  C   UNL     1       1.992  -4.860 -26.915  1.00  0.00     0.035 A 
HETATM   15  C   UNL     1       3.070  -4.014 -26.729  1.00  0.00     0.021 A 
HETATM   16  C   UNL     1       3.170  -3.315 -25.521  1.00  0.00     0.002 A 
HETATM   17  C   UNL     1       2.197  -3.462 -24.528  1.00  0.00     0.002 A 
HETATM   18  C   UNL     1       1.101  -4.299 -24.739  1.00  0.00     0.031 A 
HETATM   19  C   UNL     1       1.003  -5.009 -25.931  1.00  0.00     0.055 A 
HETATM   20  N   UNL     1      -0.007  -5.895 -26.296  1.00  0.00    -0.311 N 
HETATM   21  C   UNL     1      -1.034  -6.386 -25.408  1.00  0.00     0.167 C 
HETATM   22  C   UNL     1      -2.044  -7.124 -26.209  1.00  0.00     0.075 C 
ENDROOT
BRANCH  21  23
HETATM   23  C   UNL     1      -0.401  -7.232 -24.283  1.00  0.00    -0.030 A 
HETATM   24  C   UNL     1      -0.481  -6.790 -22.951  1.00  0.00     0.011 A 
HETATM   25  C   UNL     1       0.181  -7.473 -21.928  1.00  0.00     0.024 A 
HETATM   26  C   UNL     1       0.913  -8.620 -22.223  1.00  0.00     0.034 A 
HETATM   27 CL   UNL     1       1.755  -9.438 -20.966  1.00  0.00    -0.084 Cl
HETATM   28  C   UNL     1       0.976  -9.098 -23.528  1.00  0.00     0.024 A 
HETATM   29  C   UNL     1       0.325  -8.409 -24.556  1.00  0.00     0.011 A 
ENDBRANCH  21  23
TORSDOF 1
ENDMDL
MODEL 8
REMARK VINA RESULT:      -7.5     26.180     29.047
REMARK  1 active torsions:
REMARK  status: ('A' for Active; 'I' for Inactive)
REMARK    1  A    between atoms: C_21  and  C_22 
ROOT
HETATM    1  O   UNL     1      26.317  -0.485 -22.692  1.00  0.00    -0.259 OA
HETATM    2  C   UNL     1      26.535  -0.396 -21.491  1.00  0.00     0.299 C 
HETATM    3  O   UNL     1      26.042   0.646 -20.717  1.00  0.00    -0.274 OA
HETATM    4  C   UNL     1      26.924   1.034 -19.703  1.00  0.00     0.092 C 
HETATM    5  C   UNL     1      26.998   2.390 -19.427  1.00  0.00     0.038 C 
HETATM    6  C   UNL     1      28.192   2.875 -18.924  1.00  0.00     0.003 C 
HETATM    7  C   UNL     1      29.115   1.987 -18.371  1.00  0.00     0.001 C 
HETATM    8  C   UNL     1      28.856   0.609 -18.366  1.00  0.00     0.017 C 
HETATM    9  C   UNL     1      27.793   0.114 -19.120  1.00  0.00     0.028 C 
HETATM   10  C   UNL     1      27.602  -1.295 -19.469  1.00  0.00     0.087 C 
HETATM   11  N   UNL     1      27.941  -2.312 -18.607  1.00  0.00    -0.223 NA
HETATM   12  C   UNL     1      27.616  -3.499 -19.027  1.00  0.00     0.175 A 
HETATM   13  S   UNL     1      27.814  -4.930 -18.008  1.00  0.00    -0.050 SA
HETATM   14  C   UNL     1      27.182  -5.973 -19.318  1.00  0.00     0.035 A 
HETATM   15  C   UNL     1      27.019  -7.348 -19.313  1.00  0.00     0.021 A 
HETATM   16  C   UNL     1      26.544  -7.967 -20.473  1.00  0.00     0.002 A 
HETATM   17  C   UNL     1      26.234  -7.216 -21.609  1.00  0.00     0.002 A 
HETATM   18  C   UNL     1      26.378  -5.828 -21.593  1.00  0.00     0.031 A 
HETATM   19  C   UNL     1      26.864  -5.205 -20.447  1.00  0.00     0.055 A 
HETATM   20  N   UNL     1      27.084  -3.843 -20.266  1.00  0.00    -0.311 N 
HETATM   21  C   UNL     1      27.034  -2.852 -21.315  1.00  0.00     0.167 C 
HETATM   22  C   UNL     1      27.101  -1.502 -20.699  1.00  0.00     0.075 C 
ENDROOT
BRANCH  21  23
HETATM   23  C   UNL     1      28.151  -3.117 -22.347  1.00  0.00    -0.030 A 
HETATM   24  C   UNL     1      29.498  -2.975 -21.967  1.00  0.00     0.011 A 
HETATM   25  C   UNL     1      30.524  -3.095 -22.907  1.00  0.00     0.024 A 
HETATM   26  C   UNL     1      30.216  -3.380 -24.234  1.00  0.00     0.034 A 
HETATM   27 CL   UNL     1      31.480  -3.493 -25.395  1.00  0.00    -0.084 Cl
HETATM   28  C   UNL     1      28.893  -3.562 -24.627  1.00  0.00     0.024 A 
HETATM   29  C   UNL     1      27.864  -3.431 -23.690  1.00  0.00     0.011 A 
ENDBRANCH  21  23
TORSDOF 1
ENDMDL
MODEL 9
REMARK VINA RESULT:      -7.3     23.746     27.064
REMARK  1 active torsions:
REMARK  status: ('A' for Active; 'I' for Inactive)
REMARK    1  A    between atoms: C_21  and  C_22 
ROOT
HETATM    1  O   UNL     1      -0.319  -5.709 -28.688  1.00  0.00    -0.259 OA
HETATM    2  C   UNL     1      -0.758  -6.631 -28.015  1.00  0.00     0.299 C 
HETATM    3  O   UNL     1      -1.939  -7.289 -28.330  1.00  0.00    -0.274 OA
HETATM    4  C   UNL     1      -2.660  -7.686 -27.198  1.00  0.00     0.092 C 
HETATM    5  C   UNL     1      -4.040  -7.590 -27.275  1.00  0.00     0.038 C 
HETATM    6  C   UNL     1      -4.731  -7.381 -26.094  1.00  0.00     0.003 C 
HETATM    7  C   UNL     1      -4.105  -7.645 -24.876  1.00  0.00     0.001 C 
HETATM    8  C   UNL     1      -2.770  -8.073 -24.845  1.00  0.00     0.017 C 
HETATM    9  C   UNL     1      -2.007  -8.006 -26.011  1.00  0.00     0.028 C 
HETATM   10  C   UNL     1      -0.547  -8.104 -26.059  1.00  0.00     0.087 C 
HETATM   11  N   UNL     1       0.158  -8.925 -25.210  1.00  0.00    -0.223 NA
HETATM   12  C   UNL     1       1.435  -8.972 -25.449  1.00  0.00     0.175 A 
HETATM   13  S   UNL     1       2.501 -10.085 -24.583  1.00  0.00    -0.050 SA
HETATM   14  C   UNL     1       3.915  -9.467 -25.490  1.00  0.00     0.035 A 
HETATM   15  C   UNL     1       5.239  -9.850 -25.375  1.00  0.00     0.021 A 
HETATM   16  C   UNL     1       6.194  -9.196 -26.160  1.00  0.00     0.002 A 
HETATM   17  C   UNL     1       5.819  -8.184 -27.047  1.00  0.00     0.002 A 
HETATM   18  C   UNL     1       4.477  -7.825 -27.173  1.00  0.00     0.031 A 
HETATM   19  C   UNL     1       3.522  -8.460 -26.385  1.00  0.00     0.055 A 
HETATM   20  N   UNL     1       2.153  -8.215 -26.370  1.00  0.00    -0.311 N 
HETATM   21  C   UNL     1       1.505  -7.107 -27.034  1.00  0.00     0.167 C 
HETATM   22  C   UNL     1       0.035  -7.309 -26.975  1.00  0.00     0.075 C 
ENDROOT
BRANCH  21  23
HETATM   23  C   UNL     1       1.971  -5.773 -26.414  1.00  0.00    -0.030 A 
HETATM   24  C   UNL     1       1.496  -5.389 -25.148  1.00  0.00     0.011 A 
HETATM   25  C   UNL     1       1.808  -4.137 -24.614  1.00  0.00     0.024 A 
HETATM   26  C   UNL     1       2.619  -3.262 -25.332  1.00  0.00     0.034 A 
HETATM   27 CL   UNL     1       2.973  -1.708 -24.686  1.00  0.00    -0.084 Cl
HETATM   28  C   UNL     1       3.132  -3.633 -26.570  1.00  0.00     0.024 A 
HETATM   29  C   UNL     1       2.810  -4.882 -27.112  1.00  0.00     0.011 A 
ENDBRANCH  21  23
TORSDOF 1
ENDMDL
