MODEL 1
REMARK VINA RESULT:      -9.8      0.000      0.000
REMARK  1 active torsions:
REMARK  status: ('A' for Active; 'I' for Inactive)
REMARK    1  A    between atoms: C_21  and  C_22 
ROOT
HETATM    1  O   UNL     1       7.668  16.012 -31.308  1.00  0.00    -0.259 OA
HETATM    2  C   UNL     1       8.594  15.643 -30.593  1.00  0.00     0.299 C 
HETATM    3  O   UNL     1       8.602  14.393 -29.992  1.00  0.00    -0.274 OA
HETATM    4  C   UNL     1       9.303  14.313 -28.780  1.00  0.00     0.092 C 
HETATM    5  C   UNL     1       8.785  13.443 -27.827  1.00  0.00     0.038 C 
HETATM    6  C   UNL     1       9.123  13.655 -26.497  1.00  0.00     0.003 C 
HETATM    7  C   UNL     1      10.128  14.571 -26.173  1.00  0.00     0.001 C 
HETATM    8  C   UNL     1      10.799  15.273 -27.183  1.00  0.00     0.017 C 
HETATM    9  C   UNL     1      10.343  15.197 -28.499  1.00  0.00     0.028 C 
HETATM   10  C   UNL     1      10.787  16.092 -29.573  1.00  0.00     0.087 C 
HETATM   11  N   UNL     1      12.073  16.603 -29.602  1.00  0.00    -0.223 NA
HETATM   12  C   UNL     1      12.371  17.272 -30.671  1.00  0.00     0.175 A 
HETATM   13  S   UNL     1      14.029  17.833 -30.976  1.00  0.00    -0.050 SA
HETATM   14  C   UNL     1      13.499  18.583 -32.513  1.00  0.00     0.035 A 
HETATM   15  C   UNL     1      14.265  19.325 -33.404  1.00  0.00     0.021 A 
HETATM   16  C   UNL     1      13.624  19.877 -34.516  1.00  0.00     0.002 A 
HETATM   17  C   UNL     1      12.257  19.673 -34.731  1.00  0.00     0.002 A 
HETATM   18  C   UNL     1      11.510  18.902 -33.838  1.00  0.00     0.031 A 
HETATM   19  C   UNL     1      12.124  18.361 -32.715  1.00  0.00     0.055 A 
HETATM   20  N   UNL     1      11.524  17.616 -31.705  1.00  0.00    -0.311 N 
HETATM   21  C   UNL     1      10.088  17.409 -31.575  1.00  0.00     0.167 C 
HETATM   22  C   UNL     1       9.859  16.389 -30.502  1.00  0.00     0.075 C 
ENDROOT
BRANCH  21  23
HETATM   23  C   UNL     1       9.395  18.733 -31.276  1.00  0.00    -0.030 A 
HETATM   24  C   UNL     1       9.626  19.358 -30.037  1.00  0.00     0.009 A 
HETATM   25  C   UNL     1       8.963  20.538 -29.702  1.00  0.00     0.001 A 
HETATM   26  C   UNL     1       8.078  21.122 -30.605  1.00  0.00     0.000 A 
HETATM   27  C   UNL     1       7.861  20.529 -31.848  1.00  0.00     0.001 A 
HETATM   28  C   UNL     1       8.517  19.342 -32.182  1.00  0.00     0.009 A 
ENDBRANCH  21  23
TORSDOF 1
ENDMDL
MODEL 2
REMARK VINA RESULT:      -9.1      2.714      4.189
REMARK  1 active torsions:
REMARK  status: ('A' for Active; 'I' for Inactive)
REMARK    1  A    between atoms: C_21  and  C_22 
ROOT
HETATM    1  O   UNL     1      10.999  16.368 -28.436  1.00  0.00    -0.259 OA
HETATM    2  C   UNL     1      11.734  15.950 -29.326  1.00  0.00     0.299 C 
HETATM    3  O   UNL     1      12.236  14.657 -29.314  1.00  0.00    -0.274 OA
HETATM    4  C   UNL     1      13.474  14.487 -29.948  1.00  0.00     0.092 C 
HETATM    5  C   UNL     1      14.326  13.542 -29.389  1.00  0.00     0.038 C 
HETATM    6  C   UNL     1      15.685  13.651 -29.652  1.00  0.00     0.003 C 
HETATM    7  C   UNL     1      16.135  14.545 -30.627  1.00  0.00     0.001 C 
HETATM    8  C   UNL     1      15.222  15.330 -31.344  1.00  0.00     0.017 C 
HETATM    9  C   UNL     1      13.880  15.353 -30.962  1.00  0.00     0.028 C 
HETATM   10  C   UNL     1      12.905  16.332 -31.454  1.00  0.00     0.087 C 
HETATM   11  N   UNL     1      12.988  16.853 -32.734  1.00  0.00    -0.223 NA
HETATM   12  C   UNL     1      11.992  17.606 -33.082  1.00  0.00     0.175 A 
HETATM   13  S   UNL     1      11.824  18.200 -34.748  1.00  0.00    -0.050 SA
HETATM   14  C   UNL     1      10.322  19.065 -34.295  1.00  0.00     0.035 A 
HETATM   15  C   UNL     1       9.536  19.879 -35.100  1.00  0.00     0.021 A 
HETATM   16  C   UNL     1       8.437  20.512 -34.515  1.00  0.00     0.002 A 
HETATM   17  C   UNL     1       8.131  20.316 -33.164  1.00  0.00     0.002 A 
HETATM   18  C   UNL     1       8.918  19.473 -32.378  1.00  0.00     0.031 A 
HETATM   19  C   UNL     1      10.028  18.850 -32.935  1.00  0.00     0.055 A 
HETATM   20  N   UNL     1      10.943  18.024 -32.290  1.00  0.00    -0.311 N 
HETATM   21  C   UNL     1      10.976  17.798 -30.850  1.00  0.00     0.167 C 
HETATM   22  C   UNL     1      11.952  16.696 -30.575  1.00  0.00     0.075 C 
ENDROOT
BRANCH  21  23
HETATM   23  C   UNL     1      11.338  19.089 -30.128  1.00  0.00    -0.030 A 
HETATM   24  C   UNL     1      10.353  19.741 -29.363  1.00  0.00     0.009 A 
HETATM   25  C   UNL     1      10.627  20.957 -28.739  1.00  0.00     0.001 A 
HETATM   26  C   UNL     1      11.892  21.530 -28.851  1.00  0.00     0.000 A 
HETATM   27  C   UNL     1      12.886  20.881 -29.582  1.00  0.00     0.001 A 
HETATM   28  C   UNL     1      12.610  19.668 -30.216  1.00  0.00     0.009 A 
ENDBRANCH  21  23
TORSDOF 1
ENDMDL
MODEL 3
REMARK VINA RESULT:      -8.5      3.373      6.583
REMARK  1 active torsions:
REMARK  status: ('A' for Active; 'I' for Inactive)
REMARK    1  A    between atoms: C_21  and  C_22 
ROOT
HETATM    1  O   UNL     1      10.777  18.834 -29.453  1.00  0.00    -0.259 OA
HETATM    2  C   UNL     1      11.690  19.452 -29.994  1.00  0.00     0.299 C 
HETATM    3  O   UNL     1      11.850  20.819 -29.824  1.00  0.00    -0.274 OA
HETATM    4  C   UNL     1      12.453  21.491 -30.896  1.00  0.00     0.092 C 
HETATM    5  C   UNL     1      12.007  22.785 -31.139  1.00  0.00     0.038 C 
HETATM    6  C   UNL     1      12.198  23.314 -32.409  1.00  0.00     0.003 C 
HETATM    7  C   UNL     1      13.011  22.643 -33.326  1.00  0.00     0.001 C 
HETATM    8  C   UNL     1      13.640  21.442 -32.970  1.00  0.00     0.017 C 
HETATM    9  C   UNL     1      13.311  20.820 -31.766  1.00  0.00     0.028 C 
HETATM   10  C   UNL     1      13.690  19.445 -31.424  1.00  0.00     0.087 C 
HETATM   11  N   UNL     1      14.875  18.890 -31.876  1.00  0.00    -0.223 NA
HETATM   12  C   UNL     1      15.147  17.717 -31.394  1.00  0.00     0.175 A 
HETATM   13  S   UNL     1      16.711  16.934 -31.701  1.00  0.00    -0.050 SA
HETATM   14  C   UNL     1      16.194  15.511 -30.745  1.00  0.00     0.035 A 
HETATM   15  C   UNL     1      16.900  14.335 -30.524  1.00  0.00     0.021 A 
HETATM   16  C   UNL     1      16.271  13.322 -29.797  1.00  0.00     0.002 A 
HETATM   17  C   UNL     1      14.977  13.495 -29.295  1.00  0.00     0.002 A 
HETATM   18  C   UNL     1      14.294  14.694 -29.505  1.00  0.00     0.031 A 
HETATM   19  C   UNL     1      14.894  15.708 -30.243  1.00  0.00     0.055 A 
HETATM   20  N   UNL     1      14.343  16.938 -30.588  1.00  0.00    -0.311 N 
HETATM   21  C   UNL     1      12.952  17.311 -30.360  1.00  0.00     0.167 C 
HETATM   22  C   UNL     1      12.805  18.769 -30.667  1.00  0.00     0.075 C 
ENDROOT
BRANCH  21  23
HETATM   23  C   UNL     1      12.033  16.441 -31.208  1.00  0.00    -0.030 A 
HETATM   24  C   UNL     1      12.089  16.557 -32.609  1.00  0.00     0.009 A 
HETATM   25  C   UNL     1      11.221  15.825 -33.418  1.00  0.00     0.001 A 
HETATM   26  C   UNL     1      10.300  14.951 -32.842  1.00  0.00     0.000 A 
HETATM   27  C   UNL     1      10.254  14.805 -31.456  1.00  0.00     0.001 A 
HETATM   28  C   UNL     1      11.116  15.545 -30.645  1.00  0.00     0.009 A 
ENDBRANCH  21  23
TORSDOF 1
ENDMDL
MODEL 4
REMARK VINA RESULT:      -8.4      2.990      6.655
REMARK  1 active torsions:
REMARK  status: ('A' for Active; 'I' for Inactive)
REMARK    1  A    between atoms: C_21  and  C_22 
ROOT
HETATM    1  O   UNL     1      13.222  18.352 -33.701  1.00  0.00    -0.259 OA
HETATM    2  C   UNL     1      12.134  18.025 -34.166  1.00  0.00     0.299 C 
HETATM    3  O   UNL     1      11.951  17.815 -35.525  1.00  0.00    -0.274 OA
HETATM    4  C   UNL     1      10.658  18.071 -36.004  1.00  0.00     0.092 C 
HETATM    5  C   UNL     1      10.571  18.589 -37.290  1.00  0.00     0.038 C 
HETATM    6  C   UNL     1       9.420  19.283 -37.639  1.00  0.00     0.003 C 
HETATM    7  C   UNL     1       8.309  19.255 -36.791  1.00  0.00     0.001 C 
HETATM    8  C   UNL     1       8.348  18.527 -35.595  1.00  0.00     0.017 C 
HETATM    9  C   UNL     1       9.554  17.978 -35.158  1.00  0.00     0.028 C 
HETATM   10  C   UNL     1       9.771  17.446 -33.809  1.00  0.00     0.087 C 
HETATM   11  N   UNL     1       8.750  16.835 -33.102  1.00  0.00    -0.223 NA
HETATM   12  C   UNL     1       9.110  16.295 -31.980  1.00  0.00     0.175 A 
HETATM   13  S   UNL     1       7.984  15.299 -31.032  1.00  0.00    -0.050 SA
HETATM   14  C   UNL     1       9.248  15.041 -29.790  1.00  0.00     0.035 A 
HETATM   15  C   UNL     1       9.133  14.343 -28.594  1.00  0.00     0.021 A 
HETATM   16  C   UNL     1      10.235  14.327 -27.737  1.00  0.00     0.002 A 
HETATM   17  C   UNL     1      11.423  14.982 -28.083  1.00  0.00     0.002 A 
HETATM   18  C   UNL     1      11.527  15.655 -29.301  1.00  0.00     0.031 A 
HETATM   19  C   UNL     1      10.435  15.700 -30.159  1.00  0.00     0.055 A 
HETATM   20  N   UNL     1      10.350  16.364 -31.379  1.00  0.00    -0.311 N 
HETATM   21  C   UNL     1      11.365  17.273 -31.895  1.00  0.00     0.167 C 
HETATM   22  C   UNL     1      11.011  17.609 -33.311  1.00  0.00     0.075 C 
ENDROOT
BRANCH  21  23
HETATM   23  C   UNL     1      11.458  18.508 -31.009  1.00  0.00    -0.030 A 
HETATM   24  C   UNL     1      12.712  18.886 -30.497  1.00  0.00     0.009 A 
HETATM   25  C   UNL     1      12.829  19.973 -29.632  1.00  0.00     0.001 A 
HETATM   26  C   UNL     1      11.700  20.712 -29.283  1.00  0.00     0.000 A 
HETATM   27  C   UNL     1      10.455  20.366 -29.806  1.00  0.00     0.001 A 
HETATM   28  C   UNL     1      10.335  19.271 -30.664  1.00  0.00     0.009 A 
ENDBRANCH  21  23
TORSDOF 1
ENDMDL
MODEL 5
REMARK VINA RESULT:      -8.2      1.676      2.227
REMARK  1 active torsions:
REMARK  status: ('A' for Active; 'I' for Inactive)
REMARK    1  A    between atoms: C_21  and  C_22 
ROOT
HETATM    1  O   UNL     1       9.057  17.435 -31.746  1.00  0.00    -0.259 OA
HETATM    2  C   UNL     1       9.682  16.631 -31.062  1.00  0.00     0.299 C 
HETATM    3  O   UNL     1       9.180  15.372 -30.769  1.00  0.00    -0.274 OA
HETATM    4  C   UNL     1       9.612  14.819 -29.555  1.00  0.00     0.092 C 
HETATM    5  C   UNL     1       8.691  14.029 -28.878  1.00  0.00     0.038 C 
HETATM    6  C   UNL     1       8.865  13.850 -27.511  1.00  0.00     0.003 C 
HETATM    7  C   UNL     1      10.051  14.267 -26.901  1.00  0.00     0.001 C 
HETATM    8  C   UNL     1      11.068  14.860 -27.660  1.00  0.00     0.017 C 
HETATM    9  C   UNL     1      10.828  15.201 -28.992  1.00  0.00     0.028 C 
HETATM   10  C   UNL     1      11.708  16.064 -29.788  1.00  0.00     0.087 C 
HETATM   11  N   UNL     1      13.078  16.076 -29.590  1.00  0.00    -0.223 NA
HETATM   12  C   UNL     1      13.747  16.783 -30.446  1.00  0.00     0.175 A 
HETATM   13  S   UNL     1      15.523  16.761 -30.474  1.00  0.00    -0.050 SA
HETATM   14  C   UNL     1      15.523  17.927 -31.833  1.00  0.00     0.035 A 
HETATM   15  C   UNL     1      16.623  18.499 -32.460  1.00  0.00     0.021 A 
HETATM   16  C   UNL     1      16.386  19.443 -33.462  1.00  0.00     0.002 A 
HETATM   17  C   UNL     1      15.081  19.787 -33.831  1.00  0.00     0.002 A 
HETATM   18  C   UNL     1      13.990  19.181 -33.207  1.00  0.00     0.031 A 
HETATM   19  C   UNL     1      14.203  18.254 -32.194  1.00  0.00     0.055 A 
HETATM   20  N   UNL     1      13.238  17.596 -31.438  1.00  0.00    -0.311 N 
HETATM   21  C   UNL     1      11.812  17.897 -31.479  1.00  0.00     0.167 C 
HETATM   22  C   UNL     1      11.092  16.844 -30.695  1.00  0.00     0.075 C 
ENDROOT
BRANCH  21  23
HETATM   23  C   UNL     1      11.560  19.299 -30.939  1.00  0.00    -0.030 A 
HETATM   24  C   UNL     1      10.793  20.196 -31.706  1.00  0.00     0.009 A 
HETATM   25  C   UNL     1      10.592  21.507 -31.276  1.00  0.00     0.001 A 
HETATM   26  C   UNL     1      11.134  21.935 -30.066  1.00  0.00     0.000 A 
HETATM   27  C   UNL     1      11.872  21.049 -29.282  1.00  0.00     0.001 A 
HETATM   28  C   UNL     1      12.082  19.739 -29.716  1.00  0.00     0.009 A 
ENDBRANCH  21  23
TORSDOF 1
ENDMDL
MODEL 6
REMARK VINA RESULT:      -8.0      2.724      5.843
REMARK  1 active torsions:
REMARK  status: ('A' for Active; 'I' for Inactive)
REMARK    1  A    between atoms: C_21  and  C_22 
ROOT
HETATM    1  O   UNL     1       8.371  19.106 -29.672  1.00  0.00    -0.259 OA
HETATM    2  C   UNL     1       9.423  19.726 -29.557  1.00  0.00     0.299 C 
HETATM    3  O   UNL     1       9.491  20.935 -28.881  1.00  0.00    -0.274 OA
HETATM    4  C   UNL     1      10.488  21.816 -29.323  1.00  0.00     0.092 C 
HETATM    5  C   UNL     1      10.181  23.170 -29.265  1.00  0.00     0.038 C 
HETATM    6  C   UNL     1      10.888  24.036 -30.088  1.00  0.00     0.003 C 
HETATM    7  C   UNL     1      12.016  23.577 -30.774  1.00  0.00     0.001 C 
HETATM    8  C   UNL     1      12.440  22.249 -30.632  1.00  0.00     0.017 C 
HETATM    9  C   UNL     1      11.636  21.335 -29.950  1.00  0.00     0.028 C 
HETATM   10  C   UNL     1      11.841  19.883 -29.979  1.00  0.00     0.087 C 
HETATM   11  N   UNL     1      13.108  19.335 -30.081  1.00  0.00    -0.223 NA
HETATM   12  C   UNL     1      13.156  18.045 -29.964  1.00  0.00     0.175 A 
HETATM   13  S   UNL     1      14.707  17.185 -29.870  1.00  0.00    -0.050 SA
HETATM   14  C   UNL     1      13.840  15.622 -29.749  1.00  0.00     0.035 A 
HETATM   15  C   UNL     1      14.392  14.348 -29.682  1.00  0.00     0.021 A 
HETATM   16  C   UNL     1      13.519  13.259 -29.661  1.00  0.00     0.002 A 
HETATM   17  C   UNL     1      12.133  13.448 -29.690  1.00  0.00     0.002 A 
HETATM   18  C   UNL     1      11.598  14.736 -29.731  1.00  0.00     0.031 A 
HETATM   19  C   UNL     1      12.449  15.834 -29.773  1.00  0.00     0.055 A 
HETATM   20  N   UNL     1      12.090  17.175 -29.865  1.00  0.00    -0.311 N 
HETATM   21  C   UNL     1      10.732  17.650 -30.097  1.00  0.00     0.167 C 
HETATM   22  C   UNL     1      10.722  19.137 -29.919  1.00  0.00     0.075 C 
ENDROOT
BRANCH  21  23
HETATM   23  C   UNL     1      10.261  17.227 -31.483  1.00  0.00    -0.030 A 
HETATM   24  C   UNL     1      11.005  17.631 -32.607  1.00  0.00     0.009 A 
HETATM   25  C   UNL     1      10.573  17.317 -33.895  1.00  0.00     0.001 A 
HETATM   26  C   UNL     1       9.406  16.579 -34.080  1.00  0.00     0.000 A 
HETATM   27  C   UNL     1       8.675  16.148 -32.974  1.00  0.00     0.001 A 
HETATM   28  C   UNL     1       9.100  16.470 -31.684  1.00  0.00     0.009 A 
ENDBRANCH  21  23
TORSDOF 1
ENDMDL
MODEL 7
REMARK VINA RESULT:      -7.5      3.077      4.855
REMARK  1 active torsions:
REMARK  status: ('A' for Active; 'I' for Inactive)
REMARK    1  A    between atoms: C_21  and  C_22 
ROOT
HETATM    1  O   UNL     1      14.995  18.088 -32.183  1.00  0.00    -0.259 OA
HETATM    2  C   UNL     1      14.352  17.515 -31.309  1.00  0.00     0.299 C 
HETATM    3  O   UNL     1      14.949  16.644 -30.412  1.00  0.00    -0.274 OA
HETATM    4  C   UNL     1      14.121  15.624 -29.922  1.00  0.00     0.092 C 
HETATM    5  C   UNL     1      14.734  14.402 -29.673  1.00  0.00     0.038 C 
HETATM    6  C   UNL     1      13.937  13.265 -29.646  1.00  0.00     0.003 C 
HETATM    7  C   UNL     1      12.545  13.392 -29.645  1.00  0.00     0.001 C 
HETATM    8  C   UNL     1      11.949  14.660 -29.666  1.00  0.00     0.017 C 
HETATM    9  C   UNL     1      12.739  15.792 -29.871  1.00  0.00     0.028 C 
HETATM   10  C   UNL     1      12.201  17.120 -30.184  1.00  0.00     0.087 C 
HETATM   11  N   UNL     1      10.982  17.542 -29.682  1.00  0.00    -0.223 NA
HETATM   12  C   UNL     1      10.688  18.780 -29.930  1.00  0.00     0.175 A 
HETATM   13  S   UNL     1       9.265  19.554 -29.202  1.00  0.00    -0.050 SA
HETATM   14  C   UNL     1       9.651  21.080 -30.054  1.00  0.00     0.035 A 
HETATM   15  C   UNL     1       8.925  22.266 -30.043  1.00  0.00     0.021 A 
HETATM   16  C   UNL     1       9.379  23.318 -30.841  1.00  0.00     0.002 A 
HETATM   17  C   UNL     1      10.538  23.184 -31.615  1.00  0.00     0.002 A 
HETATM   18  C   UNL     1      11.267  21.995 -31.591  1.00  0.00     0.031 A 
HETATM   19  C   UNL     1      10.822  20.929 -30.819  1.00  0.00     0.055 A 
HETATM   20  N   UNL     1      11.394  19.664 -30.719  1.00  0.00    -0.311 N 
HETATM   21  C   UNL     1      12.493  19.189 -31.550  1.00  0.00     0.167 C 
HETATM   22  C   UNL     1      12.959  17.877 -30.999  1.00  0.00     0.075 C 
ENDROOT
BRANCH  21  23
HETATM   23  C   UNL     1      12.041  19.083 -33.001  1.00  0.00    -0.030 A 
HETATM   24  C   UNL     1      12.608  19.947 -33.956  1.00  0.00     0.009 A 
HETATM   25  C   UNL     1      12.176  19.924 -35.281  1.00  0.00     0.001 A 
HETATM   26  C   UNL     1      11.189  19.025 -35.678  1.00  0.00     0.000 A 
HETATM   27  C   UNL     1      10.638  18.143 -34.748  1.00  0.00     0.001 A 
HETATM   28  C   UNL     1      11.062  18.172 -33.419  1.00  0.00     0.009 A 
ENDBRANCH  21  23
TORSDOF 1
ENDMDL
MODEL 8
REMARK VINA RESULT:      -7.5     23.847     27.145
REMARK  1 active torsions:
REMARK  status: ('A' for Active; 'I' for Inactive)
REMARK    1  A    between atoms: C_21  and  C_22 
ROOT
HETATM    1  O   UNL     1       0.006  -5.189 -29.103  1.00  0.00    -0.259 OA
HETATM    2  C   UNL     1      -0.625  -6.137 -28.645  1.00  0.00     0.299 C 
HETATM    3  O   UNL     1      -1.804  -6.581 -29.225  1.00  0.00    -0.274 OA
HETATM    4  C   UNL     1      -2.720  -7.176 -28.346  1.00  0.00     0.092 C 
HETATM    5  C   UNL     1      -4.065  -6.968 -28.627  1.00  0.00     0.038 C 
HETATM    6  C   UNL     1      -4.978  -7.110 -27.590  1.00  0.00     0.003 C 
HETATM    7  C   UNL     1      -4.568  -7.665 -26.375  1.00  0.00     0.001 C 
HETATM    8  C   UNL     1      -3.242  -8.082 -26.197  1.00  0.00     0.017 C 
HETATM    9  C   UNL     1      -2.286  -7.779 -27.167  1.00  0.00     0.028 C 
HETATM   10  C   UNL     1      -0.840  -7.918 -26.963  1.00  0.00     0.087 C 
HETATM   11  N   UNL     1      -0.318  -8.910 -26.152  1.00  0.00    -0.223 NA
HETATM   12  C   UNL     1       0.976  -9.000 -26.164  1.00  0.00     0.175 A 
HETATM   13  S   UNL     1       1.815 -10.334 -25.344  1.00  0.00    -0.050 SA
HETATM   14  C   UNL     1       3.394  -9.662 -25.852  1.00  0.00     0.035 A 
HETATM   15  C   UNL     1       4.661 -10.144 -25.545  1.00  0.00     0.021 A 
HETATM   16  C   UNL     1       5.765  -9.417 -25.995  1.00  0.00     0.002 A 
HETATM   17  C   UNL     1       5.597  -8.248 -26.747  1.00  0.00     0.002 A 
HETATM   18  C   UNL     1       4.316  -7.795 -27.068  1.00  0.00     0.031 A 
HETATM   19  C   UNL     1       3.204  -8.493 -26.612  1.00  0.00     0.055 A 
HETATM   20  N   UNL     1       1.866  -8.158 -26.796  1.00  0.00    -0.311 N 
HETATM   21  C   UNL     1       1.403  -6.904 -27.376  1.00  0.00     0.167 C 
HETATM   22  C   UNL     1      -0.074  -7.011 -27.598  1.00  0.00     0.075 C 
ENDROOT
BRANCH  21  23
HETATM   23  C   UNL     1       1.772  -5.740 -26.464  1.00  0.00    -0.030 A 
HETATM   24  C   UNL     1       1.150  -5.637 -25.207  1.00  0.00     0.009 A 
HETATM   25  C   UNL     1       1.414  -4.553 -24.370  1.00  0.00     0.001 A 
HETATM   26  C   UNL     1       2.316  -3.569 -24.766  1.00  0.00     0.000 A 
HETATM   27  C   UNL     1       2.962  -3.673 -25.998  1.00  0.00     0.001 A 
HETATM   28  C   UNL     1       2.691  -4.752 -26.841  1.00  0.00     0.009 A 
ENDBRANCH  21  23
TORSDOF 1
ENDMDL
MODEL 9
REMARK VINA RESULT:      -7.5      2.712      4.476
REMARK  1 active torsions:
REMARK  status: ('A' for Active; 'I' for Inactive)
REMARK    1  A    between atoms: C_21  and  C_22 
ROOT
HETATM    1  O   UNL     1      11.870  19.682 -29.520  1.00  0.00    -0.259 OA
HETATM    2  C   UNL     1      11.518  18.604 -29.989  1.00  0.00     0.299 C 
HETATM    3  O   UNL     1      10.796  17.683 -29.246  1.00  0.00    -0.274 OA
HETATM    4  C   UNL     1      10.990  16.340 -29.600  1.00  0.00     0.092 C 
HETATM    5  C   UNL     1      10.944  15.418 -28.561  1.00  0.00     0.038 C 
HETATM    6  C   UNL     1      11.571  14.193 -28.747  1.00  0.00     0.003 C 
HETATM    7  C   UNL     1      12.029  13.832 -30.018  1.00  0.00     0.001 C 
HETATM    8  C   UNL     1      11.854  14.697 -31.106  1.00  0.00     0.017 C 
HETATM    9  C   UNL     1      11.387  15.994 -30.891  1.00  0.00     0.028 C 
HETATM   10  C   UNL     1      11.429  17.058 -31.899  1.00  0.00     0.087 C 
HETATM   11  N   UNL     1      11.290  16.779 -33.248  1.00  0.00    -0.223 NA
HETATM   12  C   UNL     1      11.216  17.821 -34.016  1.00  0.00     0.175 A 
HETATM   13  S   UNL     1      10.839  17.667 -35.745  1.00  0.00    -0.050 SA
HETATM   14  C   UNL     1      10.959  19.443 -35.936  1.00  0.00     0.035 A 
HETATM   15  C   UNL     1      10.829  20.182 -37.106  1.00  0.00     0.021 A 
HETATM   16  C   UNL     1      11.029  21.562 -37.033  1.00  0.00     0.002 A 
HETATM   17  C   UNL     1      11.335  22.180 -35.816  1.00  0.00     0.002 A 
HETATM   18  C   UNL     1      11.434  21.424 -34.647  1.00  0.00     0.031 A 
HETATM   19  C   UNL     1      11.259  20.047 -34.701  1.00  0.00     0.055 A 
HETATM   20  N   UNL     1      11.371  19.142 -33.650  1.00  0.00    -0.311 N 
HETATM   21  C   UNL     1      11.858  19.481 -32.319  1.00  0.00     0.167 C 
HETATM   22  C   UNL     1      11.629  18.302 -31.425  1.00  0.00     0.075 C 
ENDROOT
BRANCH  21  23
HETATM   23  C   UNL     1      13.326  19.882 -32.388  1.00  0.00    -0.030 A 
HETATM   24  C   UNL     1      13.697  21.181 -31.995  1.00  0.00     0.009 A 
HETATM   25  C   UNL     1      15.020  21.607 -32.102  1.00  0.00     0.001 A 
HETATM   26  C   UNL     1      15.996  20.736 -32.583  1.00  0.00     0.000 A 
HETATM   27  C   UNL     1      15.648  19.436 -32.949  1.00  0.00     0.001 A 
HETATM   28  C   UNL     1      14.322  19.012 -32.851  1.00  0.00     0.009 A 
ENDBRANCH  21  23
TORSDOF 1
ENDMDL
