MODEL 1
REMARK VINA RESULT:     -10.1      0.000      0.000
REMARK  2 active torsions:
REMARK  status: ('A' for Active; 'I' for Inactive)
REMARK    1  A    between atoms: C_21  and  C_22 
REMARK    2  A    between atoms: C_29  and  O_30 
ROOT
HETATM    1  O   UNL     1       7.754  16.437 -30.922  1.00  0.00    -0.259 OA
HETATM    2  C   UNL     1       8.719  15.856 -30.444  1.00  0.00     0.299 C 
HETATM    3  O   UNL     1       8.690  14.523 -30.070  1.00  0.00    -0.274 OA
HETATM    4  C   UNL     1       9.327  14.325 -28.840  1.00  0.00     0.092 C 
HETATM    5  C   UNL     1       8.721  13.448 -27.955  1.00  0.00     0.038 C 
HETATM    6  C   UNL     1       8.942  13.648 -26.601  1.00  0.00     0.003 C 
HETATM    7  C   UNL     1       9.992  14.471 -26.185  1.00  0.00     0.001 C 
HETATM    8  C   UNL     1      10.800  15.119 -27.128  1.00  0.00     0.017 C 
HETATM    9  C   UNL     1      10.407  15.127 -28.465  1.00  0.00     0.028 C 
HETATM   10  C   UNL     1      10.967  16.003 -29.502  1.00  0.00     0.087 C 
HETATM   11  N   UNL     1      12.294  16.366 -29.498  1.00  0.00    -0.223 NA
HETATM   12  C   UNL     1      12.654  17.054 -30.536  1.00  0.00     0.175 A 
HETATM   13  S   UNL     1      14.368  17.441 -30.830  1.00  0.00    -0.050 SA
HETATM   14  C   UNL     1      13.923  18.323 -32.323  1.00  0.00     0.035 A 
HETATM   15  C   UNL     1      14.763  18.994 -33.197  1.00  0.00     0.021 A 
HETATM   16  C   UNL     1      14.194  19.668 -34.283  1.00  0.00     0.002 A 
HETATM   17  C   UNL     1      12.813  19.629 -34.492  1.00  0.00     0.002 A 
HETATM   18  C   UNL     1      11.988  18.918 -33.621  1.00  0.00     0.031 A 
HETATM   19  C   UNL     1      12.535  18.278 -32.515  1.00  0.00     0.055 A 
HETATM   20  N   UNL     1      11.854  17.570 -31.530  1.00  0.00    -0.311 N 
HETATM   21  C   UNL     1      10.406  17.450 -31.456  1.00  0.00     0.170 C 
HETATM   22  C   UNL     1      10.066  16.444 -30.408  1.00  0.00     0.075 C 
ENDROOT
BRANCH  21  23
HETATM   23  C   UNL     1       9.763  18.812 -31.183  1.00  0.00     0.006 A 
HETATM   24  C   UNL     1       9.972  19.499 -29.971  1.00  0.00     0.031 A 
HETATM   25  C   UNL     1       9.383  20.746 -29.757  1.00  0.00     0.013 A 
HETATM   26 BR   UNL     1       9.692  21.657 -28.123  1.00  0.00    -0.051 Br
HETATM   27  C   UNL     1       8.578  21.337 -30.726  1.00  0.00     0.041 A 
HETATM   28  C   UNL     1       8.360  20.667 -31.926  1.00  0.00     0.046 A 
HETATM   29 BR   UNL     1       7.286  21.482 -33.257  1.00  0.00    -0.048 Br
HETATM   30  C   UNL     1       8.943  19.415 -32.149  1.00  0.00     0.091 A 
BRANCH  30  31
HETATM   31  O   UNL     1       8.747  18.753 -33.333  1.00  0.00    -0.359 OA
HETATM   32  H   UNL     1       8.189  17.974 -33.145  1.00  0.00     0.218 HD
ENDBRANCH  30  31
ENDBRANCH  21  23
TORSDOF 2
ENDMDL
MODEL 2
REMARK VINA RESULT:      -9.2      2.890      4.218
REMARK  2 active torsions:
REMARK  status: ('A' for Active; 'I' for Inactive)
REMARK    1  A    between atoms: C_21  and  C_22 
REMARK    2  A    between atoms: C_29  and  O_30 
ROOT
HETATM    1  O   UNL     1      10.988  16.930 -28.679  1.00  0.00    -0.259 OA
HETATM    2  C   UNL     1      11.492  16.318 -29.610  1.00  0.00     0.299 C 
HETATM    3  O   UNL     1      11.734  14.954 -29.575  1.00  0.00    -0.274 OA
HETATM    4  C   UNL     1      12.992  14.647 -30.105  1.00  0.00     0.092 C 
HETATM    5  C   UNL     1      13.732  13.681 -29.441  1.00  0.00     0.038 C 
HETATM    6  C   UNL     1      15.113  13.752 -29.538  1.00  0.00     0.003 C 
HETATM    7  C   UNL     1      15.697  14.543 -30.531  1.00  0.00     0.001 C 
HETATM    8  C   UNL     1      14.897  15.288 -31.406  1.00  0.00     0.017 C 
HETATM    9  C   UNL     1      13.536  15.421 -31.131  1.00  0.00     0.028 C 
HETATM   10  C   UNL     1      12.641  16.399 -31.763  1.00  0.00     0.087 C 
HETATM   11  N   UNL     1      12.798  16.775 -33.076  1.00  0.00    -0.223 NA
HETATM   12  C   UNL     1      11.866  17.564 -33.512  1.00  0.00     0.175 A 
HETATM   13  S   UNL     1      11.765  17.997 -35.238  1.00  0.00    -0.050 SA
HETATM   14  C   UNL     1      10.329  19.013 -34.908  1.00  0.00     0.035 A 
HETATM   15  C   UNL     1       9.601  19.775 -35.808  1.00  0.00     0.021 A 
HETATM   16  C   UNL     1       8.537  20.544 -35.323  1.00  0.00     0.002 A 
HETATM   17  C   UNL     1       8.203  20.510 -33.967  1.00  0.00     0.002 A 
HETATM   18  C   UNL     1       8.925  19.709 -33.083  1.00  0.00     0.031 A 
HETATM   19  C   UNL     1      10.010  18.971 -33.543  1.00  0.00     0.055 A 
HETATM   20  N   UNL     1      10.858  18.164 -32.793  1.00  0.00    -0.311 N 
HETATM   21  C   UNL     1      10.791  18.021 -31.347  1.00  0.00     0.170 C 
HETATM   22  C   UNL     1      11.705  16.915 -30.936  1.00  0.00     0.075 C 
ENDROOT
BRANCH  21  23
HETATM   23  C   UNL     1      11.134  19.343 -30.655  1.00  0.00     0.006 A 
HETATM   24  C   UNL     1      12.295  20.070 -30.983  1.00  0.00     0.031 A 
HETATM   25  C   UNL     1      12.573  21.280 -30.345  1.00  0.00     0.013 A 
HETATM   26 BR   UNL     1      14.135  22.247 -30.815  1.00  0.00    -0.051 Br
HETATM   27  C   UNL     1      11.719  21.792 -29.373  1.00  0.00     0.041 A 
HETATM   28  C   UNL     1      10.572  21.083 -29.036  1.00  0.00     0.046 A 
HETATM   29 BR   UNL     1       9.394  21.793 -27.733  1.00  0.00    -0.048 Br
HETATM   30  C   UNL     1      10.285  19.867 -29.668  1.00  0.00     0.091 A 
BRANCH  30  31
HETATM   31  O   UNL     1       9.150  19.166 -29.355  1.00  0.00    -0.359 OA
HETATM   32  H   UNL     1       8.424  19.811 -29.255  1.00  0.00     0.218 HD
ENDBRANCH  30  31
ENDBRANCH  21  23
TORSDOF 2
ENDMDL
MODEL 3
REMARK VINA RESULT:      -7.8     24.869     27.556
REMARK  2 active torsions:
REMARK  status: ('A' for Active; 'I' for Inactive)
REMARK    1  A    between atoms: C_21  and  C_22 
REMARK    2  A    between atoms: C_29  and  O_30 
ROOT
HETATM    1  O   UNL     1      -0.775  -4.881 -27.968  1.00  0.00    -0.259 OA
HETATM    2  C   UNL     1      -1.095  -6.015 -28.298  1.00  0.00     0.299 C 
HETATM    3  O   UNL     1      -2.076  -6.280 -29.239  1.00  0.00    -0.274 OA
HETATM    4  C   UNL     1      -2.908  -7.326 -28.826  1.00  0.00     0.092 C 
HETATM    5  C   UNL     1      -4.265  -7.179 -29.067  1.00  0.00     0.038 C 
HETATM    6  C   UNL     1      -5.142  -7.834 -28.217  1.00  0.00     0.003 C 
HETATM    7  C   UNL     1      -4.671  -8.855 -27.388  1.00  0.00     0.001 C 
HETATM    8  C   UNL     1      -3.312  -9.198 -27.390  1.00  0.00     0.017 C 
HETATM    9  C   UNL     1      -2.404  -8.363 -28.039  1.00  0.00     0.028 C 
HETATM   10  C   UNL     1      -0.946  -8.415 -27.874  1.00  0.00     0.087 C 
HETATM   11  N   UNL     1      -0.286  -9.605 -27.673  1.00  0.00    -0.223 NA
HETATM   12  C   UNL     1       1.005  -9.493 -27.653  1.00  0.00     0.175 A 
HETATM   13  S   UNL     1       2.051 -10.936 -27.617  1.00  0.00    -0.050 SA
HETATM   14  C   UNL     1       3.506  -9.893 -27.598  1.00  0.00     0.035 A 
HETATM   15  C   UNL     1       4.833 -10.287 -27.547  1.00  0.00     0.021 A 
HETATM   16  C   UNL     1       5.820  -9.296 -27.485  1.00  0.00     0.002 A 
HETATM   17  C   UNL     1       5.465  -7.945 -27.510  1.00  0.00     0.002 A 
HETATM   18  C   UNL     1       4.125  -7.569 -27.599  1.00  0.00     0.031 A 
HETATM   19  C   UNL     1       3.132  -8.541 -27.620  1.00  0.00     0.055 A 
HETATM   20  N   UNL     1       1.757  -8.340 -27.658  1.00  0.00    -0.311 N 
HETATM   21  C   UNL     1       1.115  -7.035 -27.602  1.00  0.00     0.170 C 
HETATM   22  C   UNL     1      -0.339  -7.208 -27.890  1.00  0.00     0.075 C 
ENDROOT
BRANCH  21  23
HETATM   23  C   UNL     1       1.362  -6.369 -26.245  1.00  0.00     0.006 A 
HETATM   24  C   UNL     1       1.103  -7.039 -25.034  1.00  0.00     0.031 A 
HETATM   25  C   UNL     1       1.351  -6.410 -23.813  1.00  0.00     0.013 A 
HETATM   26 BR   UNL     1       1.007  -7.339 -22.196  1.00  0.00    -0.051 Br
HETATM   27  C   UNL     1       1.854  -5.114 -23.762  1.00  0.00     0.041 A 
HETATM   28  C   UNL     1       2.110  -4.439 -24.950  1.00  0.00     0.046 A 
HETATM   29 BR   UNL     1       2.821  -2.684 -24.883  1.00  0.00    -0.048 Br
HETATM   30  C   UNL     1       1.862  -5.059 -26.180  1.00  0.00     0.091 A 
BRANCH  30  31
HETATM   31  O   UNL     1       2.124  -4.409 -27.357  1.00  0.00    -0.359 OA
HETATM   32  H   UNL     1       1.267  -4.185 -27.767  1.00  0.00     0.218 HD
ENDBRANCH  30  31
ENDBRANCH  21  23
TORSDOF 2
ENDMDL
MODEL 4
REMARK VINA RESULT:      -7.7      3.099      4.532
REMARK  2 active torsions:
REMARK  status: ('A' for Active; 'I' for Inactive)
REMARK    1  A    between atoms: C_21  and  C_22 
REMARK    2  A    between atoms: C_29  and  O_30 
ROOT
HETATM    1  O   UNL     1       8.585  16.834 -34.968  1.00  0.00    -0.259 OA
HETATM    2  C   UNL     1       9.679  16.824 -34.420  1.00  0.00     0.299 C 
HETATM    3  O   UNL     1      10.314  15.659 -34.021  1.00  0.00    -0.274 OA
HETATM    4  C   UNL     1      10.882  15.799 -32.751  1.00  0.00     0.092 C 
HETATM    5  C   UNL     1      10.756  14.722 -31.887  1.00  0.00     0.038 C 
HETATM    6  C   UNL     1      10.758  14.988 -30.526  1.00  0.00     0.003 C 
HETATM    7  C   UNL     1      11.208  16.227 -30.063  1.00  0.00     0.001 C 
HETATM    8  C   UNL     1      11.628  17.211 -30.967  1.00  0.00     0.017 C 
HETATM    9  C   UNL     1      11.371  17.035 -32.326  1.00  0.00     0.028 C 
HETATM   10  C   UNL     1      11.468  18.089 -33.344  1.00  0.00     0.087 C 
HETATM   11  N   UNL     1      12.418  19.081 -33.265  1.00  0.00    -0.223 NA
HETATM   12  C   UNL     1      12.440  19.871 -34.293  1.00  0.00     0.175 A 
HETATM   13  S   UNL     1      13.728  21.087 -34.488  1.00  0.00    -0.050 SA
HETATM   14  C   UNL     1      12.990  21.637 -36.023  1.00  0.00     0.035 A 
HETATM   15  C   UNL     1      13.421  22.656 -36.858  1.00  0.00     0.021 A 
HETATM   16  C   UNL     1      12.656  22.958 -37.990  1.00  0.00     0.002 A 
HETATM   17  C   UNL     1      11.507  22.220 -38.283  1.00  0.00     0.002 A 
HETATM   18  C   UNL     1      11.110  21.174 -37.451  1.00  0.00     0.031 A 
HETATM   19  C   UNL     1      11.836  20.889 -36.300  1.00  0.00     0.055 A 
HETATM   20  N   UNL     1      11.554  19.918 -35.345  1.00  0.00    -0.311 N 
HETATM   21  C   UNL     1      10.371  19.072 -35.358  1.00  0.00     0.170 C 
HETATM   22  C   UNL     1      10.528  18.019 -34.312  1.00  0.00     0.075 C 
ENDROOT
BRANCH  21  23
HETATM   23  C   UNL     1       9.104  19.907 -35.153  1.00  0.00     0.006 A 
HETATM   24  C   UNL     1       8.939  20.736 -34.026  1.00  0.00     0.031 A 
HETATM   25  C   UNL     1       7.779  21.497 -33.874  1.00  0.00     0.013 A 
HETATM   26 BR   UNL     1       7.588  22.615 -32.355  1.00  0.00    -0.051 Br
HETATM   27  C   UNL     1       6.762  21.453 -34.823  1.00  0.00     0.041 A 
HETATM   28  C   UNL     1       6.910  20.636 -35.938  1.00  0.00     0.046 A 
HETATM   29 BR   UNL     1       5.538  20.597 -37.245  1.00  0.00    -0.048 Br
HETATM   30  C   UNL     1       8.067  19.867 -36.099  1.00  0.00     0.091 A 
BRANCH  30  31
HETATM   31  O   UNL     1       8.231  19.069 -37.201  1.00  0.00    -0.359 OA
HETATM   32  H   UNL     1       8.145  19.637 -37.990  1.00  0.00     0.218 HD
ENDBRANCH  30  31
ENDBRANCH  21  23
TORSDOF 2
ENDMDL
MODEL 5
REMARK VINA RESULT:      -7.7      3.438      6.787
REMARK  2 active torsions:
REMARK  status: ('A' for Active; 'I' for Inactive)
REMARK    1  A    between atoms: C_21  and  C_22 
REMARK    2  A    between atoms: C_29  and  O_30 
ROOT
HETATM    1  O   UNL     1      14.951  17.067 -31.003  1.00  0.00    -0.259 OA
HETATM    2  C   UNL     1      15.113  17.806 -31.964  1.00  0.00     0.299 C 
HETATM    3  O   UNL     1      16.355  18.057 -32.525  1.00  0.00    -0.274 OA
HETATM    4  C   UNL     1      16.514  19.414 -32.823  1.00  0.00     0.092 C 
HETATM    5  C   UNL     1      17.750  19.976 -32.543  1.00  0.00     0.038 C 
HETATM    6  C   UNL     1      17.789  21.334 -32.267  1.00  0.00     0.003 C 
HETATM    7  C   UNL     1      16.696  22.139 -32.595  1.00  0.00     0.001 C 
HETATM    8  C   UNL     1      15.550  21.578 -33.173  1.00  0.00     0.017 C 
HETATM    9  C   UNL     1      15.416  20.190 -33.198  1.00  0.00     0.028 C 
HETATM   10  C   UNL     1      14.168  19.470 -33.481  1.00  0.00     0.087 C 
HETATM   11  N   UNL     1      13.245  19.953 -34.380  1.00  0.00    -0.223 NA
HETATM   12  C   UNL     1      12.251  19.150 -34.595  1.00  0.00     0.175 A 
HETATM   13  S   UNL     1      11.060  19.490 -35.877  1.00  0.00    -0.050 SA
HETATM   14  C   UNL     1      10.165  17.998 -35.454  1.00  0.00     0.035 A 
HETATM   15  C   UNL     1       9.001  17.512 -36.028  1.00  0.00     0.021 A 
HETATM   16  C   UNL     1       8.436  16.345 -35.503  1.00  0.00     0.002 A 
HETATM   17  C   UNL     1       9.058  15.673 -34.447  1.00  0.00     0.002 A 
HETATM   18  C   UNL     1      10.249  16.158 -33.908  1.00  0.00     0.031 A 
HETATM   19  C   UNL     1      10.800  17.338 -34.391  1.00  0.00     0.055 A 
HETATM   20  N   UNL     1      11.948  17.980 -33.938  1.00  0.00    -0.311 N 
HETATM   21  C   UNL     1      12.736  17.545 -32.796  1.00  0.00     0.170 C 
HETATM   22  C   UNL     1      13.997  18.342 -32.756  1.00  0.00     0.075 C 
ENDROOT
BRANCH  21  23
HETATM   23  C   UNL     1      11.929  17.672 -31.501  1.00  0.00     0.006 A 
HETATM   24  C   UNL     1      11.331  18.888 -31.119  1.00  0.00     0.031 A 
HETATM   25  C   UNL     1      10.588  18.970 -29.939  1.00  0.00     0.013 A 
HETATM   26 BR   UNL     1       9.781  20.615 -29.455  1.00  0.00    -0.051 Br
HETATM   27  C   UNL     1      10.426  17.860 -29.115  1.00  0.00     0.041 A 
HETATM   28  C   UNL     1      11.015  16.654 -29.478  1.00  0.00     0.046 A 
HETATM   29 BR   UNL     1      10.771  15.135 -28.371  1.00  0.00    -0.048 Br
HETATM   30  C   UNL     1      11.763  16.562 -30.657  1.00  0.00     0.091 A 
BRANCH  30  31
HETATM   31  O   UNL     1      12.336  15.376 -31.032  1.00  0.00    -0.359 OA
HETATM   32  H   UNL     1      12.964  15.118 -30.331  1.00  0.00     0.218 HD
ENDBRANCH  30  31
ENDBRANCH  21  23
TORSDOF 2
ENDMDL
MODEL 6
REMARK VINA RESULT:      -7.6      3.539      5.256
REMARK  2 active torsions:
REMARK  status: ('A' for Active; 'I' for Inactive)
REMARK    1  A    between atoms: C_21  and  C_22 
REMARK    2  A    between atoms: C_29  and  O_30 
ROOT
HETATM    1  O   UNL     1      15.128  17.928 -31.552  1.00  0.00    -0.259 OA
HETATM    2  C   UNL     1      14.363  17.498 -30.699  1.00  0.00     0.299 C 
HETATM    3  O   UNL     1      14.760  16.625 -29.699  1.00  0.00    -0.274 OA
HETATM    4  C   UNL     1      13.821  15.605 -29.513  1.00  0.00     0.092 C 
HETATM    5  C   UNL     1      14.318  14.327 -29.306  1.00  0.00     0.038 C 
HETATM    6  C   UNL     1      13.520  13.260 -29.688  1.00  0.00     0.003 C 
HETATM    7  C   UNL     1      12.161  13.466 -29.941  1.00  0.00     0.001 C 
HETATM    8  C   UNL     1      11.609  14.750 -29.841  1.00  0.00     0.017 C 
HETATM    9  C   UNL     1      12.462  15.846 -29.723  1.00  0.00     0.028 C 
HETATM   10  C   UNL     1      12.065  17.246 -29.915  1.00  0.00     0.087 C 
HETATM   11  N   UNL     1      10.819  17.698 -29.547  1.00  0.00    -0.223 NA
HETATM   12  C   UNL     1      10.662  18.978 -29.684  1.00  0.00     0.175 A 
HETATM   13  S   UNL     1       9.201  19.793 -29.069  1.00  0.00    -0.050 SA
HETATM   14  C   UNL     1       9.818  21.366 -29.662  1.00  0.00     0.035 A 
HETATM   15  C   UNL     1       9.203  22.605 -29.582  1.00  0.00     0.021 A 
HETATM   16  C   UNL     1       9.843  23.705 -30.165  1.00  0.00     0.002 A 
HETATM   17  C   UNL     1      11.089  23.552 -30.780  1.00  0.00     0.002 A 
HETATM   18  C   UNL     1      11.708  22.303 -30.817  1.00  0.00     0.031 A 
HETATM   19  C   UNL     1      11.066  21.194 -30.279  1.00  0.00     0.055 A 
HETATM   20  N   UNL     1      11.518  19.879 -30.274  1.00  0.00    -0.311 N 
HETATM   21  C   UNL     1      12.739  19.427 -30.923  1.00  0.00     0.170 C 
HETATM   22  C   UNL     1      13.000  18.015 -30.516  1.00  0.00     0.075 C 
ENDROOT
BRANCH  21  23
HETATM   23  C   UNL     1      12.634  19.581 -32.443  1.00  0.00     0.006 A 
HETATM   24  C   UNL     1      11.598  18.973 -33.178  1.00  0.00     0.031 A 
HETATM   25  C   UNL     1      11.520  19.144 -34.561  1.00  0.00     0.013 A 
HETATM   26 BR   UNL     1      10.107  18.325 -35.526  1.00  0.00    -0.051 Br
HETATM   27  C   UNL     1      12.459  19.910 -35.244  1.00  0.00     0.041 A 
HETATM   28  C   UNL     1      13.490  20.513 -34.532  1.00  0.00     0.046 A 
HETATM   29 BR   UNL     1      14.753  21.580 -35.456  1.00  0.00    -0.048 Br
HETATM   30  C   UNL     1      13.579  20.346 -33.145  1.00  0.00     0.091 A 
BRANCH  30  31
HETATM   31  O   UNL     1      14.581  20.947 -32.430  1.00  0.00    -0.359 OA
HETATM   32  H   UNL     1      15.146  21.429 -33.064  1.00  0.00     0.218 HD
ENDBRANCH  30  31
ENDBRANCH  21  23
TORSDOF 2
ENDMDL
MODEL 7
REMARK VINA RESULT:      -7.6     25.165     28.695
REMARK  2 active torsions:
REMARK  status: ('A' for Active; 'I' for Inactive)
REMARK    1  A    between atoms: C_21  and  C_22 
REMARK    2  A    between atoms: C_29  and  O_30 
ROOT
HETATM    1  O   UNL     1      -4.052  -7.626 -24.187  1.00  0.00    -0.259 OA
HETATM    2  C   UNL     1      -4.005  -7.368 -25.382  1.00  0.00     0.299 C 
HETATM    3  O   UNL     1      -5.124  -7.036 -26.128  1.00  0.00    -0.274 OA
HETATM    4  C   UNL     1      -5.117  -7.681 -27.369  1.00  0.00     0.092 C 
HETATM    5  C   UNL     1      -6.327  -8.189 -27.817  1.00  0.00     0.038 C 
HETATM    6  C   UNL     1      -6.287  -9.278 -28.674  1.00  0.00     0.003 C 
HETATM    7  C   UNL     1      -5.091  -9.613 -29.313  1.00  0.00     0.001 C 
HETATM    8  C   UNL     1      -3.926  -8.874 -29.069  1.00  0.00     0.017 C 
HETATM    9  C   UNL     1      -3.912  -7.963 -28.015  1.00  0.00     0.028 C 
HETATM   10  C   UNL     1      -2.704  -7.350 -27.448  1.00  0.00     0.087 C 
HETATM   11  N   UNL     1      -1.620  -7.034 -28.233  1.00  0.00    -0.223 NA
HETATM   12  C   UNL     1      -0.679  -6.405 -27.602  1.00  0.00     0.175 A 
HETATM   13  S   UNL     1       0.714  -5.719 -28.478  1.00  0.00    -0.050 SA
HETATM   14  C   UNL     1       1.402  -5.121 -26.938  1.00  0.00     0.035 A 
HETATM   15  C   UNL     1       2.591  -4.436 -26.746  1.00  0.00     0.021 A 
HETATM   16  C   UNL     1       2.968  -4.109 -25.439  1.00  0.00     0.002 A 
HETATM   17  C   UNL     1       2.140  -4.439 -24.362  1.00  0.00     0.002 A 
HETATM   18  C   UNL     1       0.930  -5.096 -24.579  1.00  0.00     0.031 A 
HETATM   19  C   UNL     1       0.561  -5.464 -25.868  1.00  0.00     0.055 A 
HETATM   20  N   UNL     1      -0.580  -6.160 -26.251  1.00  0.00    -0.311 N 
HETATM   21  C   UNL     1      -1.563  -6.700 -25.325  1.00  0.00     0.170 C 
HETATM   22  C   UNL     1      -2.741  -7.178 -26.108  1.00  0.00     0.075 C 
ENDROOT
BRANCH  21  23
HETATM   23  C   UNL     1      -0.948  -7.811 -24.469  1.00  0.00     0.006 A 
HETATM   24  C   UNL     1      -0.311  -8.925 -25.049  1.00  0.00     0.031 A 
HETATM   25  C   UNL     1       0.253  -9.914 -24.242  1.00  0.00     0.013 A 
HETATM   26 BR   UNL     1       1.117 -11.397 -25.047  1.00  0.00    -0.051 Br
HETATM   27  C   UNL     1       0.197  -9.827 -22.854  1.00  0.00     0.041 A 
HETATM   28  C   UNL     1      -0.433  -8.734 -22.268  1.00  0.00     0.046 A 
HETATM   29 BR   UNL     1      -0.485  -8.600 -20.379  1.00  0.00    -0.048 Br
HETATM   30  C   UNL     1      -1.004  -7.739 -23.068  1.00  0.00     0.091 A 
BRANCH  30  31
HETATM   31  O   UNL     1      -1.614  -6.650 -22.502  1.00  0.00    -0.359 OA
HETATM   32  H   UNL     1      -2.159  -6.227 -23.193  1.00  0.00     0.218 HD
ENDBRANCH  30  31
ENDBRANCH  21  23
TORSDOF 2
ENDMDL
MODEL 8
REMARK VINA RESULT:      -7.4      2.790      6.881
REMARK  2 active torsions:
REMARK  status: ('A' for Active; 'I' for Inactive)
REMARK    1  A    between atoms: C_21  and  C_22 
REMARK    2  A    between atoms: C_29  and  O_30 
ROOT
HETATM    1  O   UNL     1      12.717  21.818 -31.389  1.00  0.00    -0.259 OA
HETATM    2  C   UNL     1      13.771  21.214 -31.538  1.00  0.00     0.299 C 
HETATM    3  O   UNL     1      15.011  21.823 -31.438  1.00  0.00    -0.274 OA
HETATM    4  C   UNL     1      15.871  21.396 -32.455  1.00  0.00     0.092 C 
HETATM    5  C   UNL     1      16.670  22.362 -33.047  1.00  0.00     0.038 C 
HETATM    6  C   UNL     1      17.069  22.148 -34.357  1.00  0.00     0.003 C 
HETATM    7  C   UNL     1      16.956  20.873 -34.917  1.00  0.00     0.001 C 
HETATM    8  C   UNL     1      16.414  19.818 -34.172  1.00  0.00     0.017 C 
HETATM    9  C   UNL     1      15.775  20.100 -32.966  1.00  0.00     0.028 C 
HETATM   10  C   UNL     1      14.906  19.168 -32.236  1.00  0.00     0.087 C 
HETATM   11  N   UNL     1      15.149  17.814 -32.225  1.00  0.00    -0.223 NA
HETATM   12  C   UNL     1      14.355  17.143 -31.451  1.00  0.00     0.175 A 
HETATM   13  S   UNL     1      14.634  15.413 -31.130  1.00  0.00    -0.050 SA
HETATM   14  C   UNL     1      13.185  15.364 -30.080  1.00  0.00     0.035 A 
HETATM   15  C   UNL     1      12.661  14.274 -29.404  1.00  0.00     0.021 A 
HETATM   16  C   UNL     1      11.478  14.447 -28.677  1.00  0.00     0.002 A 
HETATM   17  C   UNL     1      10.867  15.702 -28.612  1.00  0.00     0.002 A 
HETATM   18  C   UNL     1      11.430  16.795 -29.269  1.00  0.00     0.031 A 
HETATM   19  C   UNL     1      12.582  16.630 -30.029  1.00  0.00     0.055 A 
HETATM   20  N   UNL     1      13.242  17.596 -30.780  1.00  0.00    -0.311 N 
HETATM   21  C   UNL     1      12.772  18.961 -30.959  1.00  0.00     0.170 C 
HETATM   22  C   UNL     1      13.845  19.749 -31.633  1.00  0.00     0.075 C 
ENDROOT
BRANCH  21  23
HETATM   23  C   UNL     1      11.457  18.983 -31.744  1.00  0.00     0.006 A 
HETATM   24  C   UNL     1      11.325  18.326 -32.982  1.00  0.00     0.031 A 
HETATM   25  C   UNL     1      10.109  18.351 -33.668  1.00  0.00     0.013 A 
HETATM   26 BR   UNL     1       9.952  17.446 -35.326  1.00  0.00    -0.051 Br
HETATM   27  C   UNL     1       9.007  19.025 -33.151  1.00  0.00     0.041 A 
HETATM   28  C   UNL     1       9.125  19.682 -31.931  1.00  0.00     0.046 A 
HETATM   29 BR   UNL     1       7.618  20.577 -31.212  1.00  0.00    -0.048 Br
HETATM   30  C   UNL     1      10.340  19.665 -31.237  1.00  0.00     0.091 A 
BRANCH  30  31
HETATM   31  O   UNL     1      10.465  20.297 -30.028  1.00  0.00    -0.359 OA
HETATM   32  H   UNL     1      10.470  19.608 -29.335  1.00  0.00     0.218 HD
ENDBRANCH  30  31
ENDBRANCH  21  23
TORSDOF 2
ENDMDL
MODEL 9
REMARK VINA RESULT:      -7.3     16.763     19.200
REMARK  2 active torsions:
REMARK  status: ('A' for Active; 'I' for Inactive)
REMARK    1  A    between atoms: C_21  and  C_22 
REMARK    2  A    between atoms: C_29  and  O_30 
ROOT
HETATM    1  O   UNL     1      24.976  23.583 -25.438  1.00  0.00    -0.259 OA
HETATM    2  C   UNL     1      25.958  23.740 -24.726  1.00  0.00     0.299 C 
HETATM    3  O   UNL     1      25.880  23.864 -23.348  1.00  0.00    -0.274 OA
HETATM    4  C   UNL     1      26.719  24.881 -22.881  1.00  0.00     0.092 C 
HETATM    5  C   UNL     1      26.216  25.697 -21.880  1.00  0.00     0.038 C 
HETATM    6  C   UNL     1      26.710  26.991 -21.799  1.00  0.00     0.003 C 
HETATM    7  C   UNL     1      27.890  27.325 -22.469  1.00  0.00     0.001 C 
HETATM    8  C   UNL     1      28.559  26.370 -23.245  1.00  0.00     0.017 C 
HETATM    9  C   UNL     1      27.919  25.166 -23.536  1.00  0.00     0.028 C 
HETATM   10  C   UNL     1      28.348  24.212 -24.567  1.00  0.00     0.087 C 
HETATM   11  N   UNL     1      29.678  24.010 -24.852  1.00  0.00    -0.223 NA
HETATM   12  C   UNL     1      29.894  23.062 -25.709  1.00  0.00     0.175 A 
HETATM   13  S   UNL     1      31.549  22.498 -26.056  1.00  0.00    -0.050 SA
HETATM   14  C   UNL     1      30.909  21.313 -27.235  1.00  0.00     0.035 A 
HETATM   15  C   UNL     1      31.623  20.421 -28.019  1.00  0.00     0.021 A 
HETATM   16  C   UNL     1      30.920  19.615 -28.921  1.00  0.00     0.002 A 
HETATM   17  C   UNL     1      29.527  19.691 -28.997  1.00  0.00     0.002 A 
HETATM   18  C   UNL     1      28.823  20.568 -28.173  1.00  0.00     0.031 A 
HETATM   19  C   UNL     1      29.510  21.404 -27.302  1.00  0.00     0.055 A 
HETATM   20  N   UNL     1      28.970  22.363 -26.451  1.00  0.00    -0.311 N 
HETATM   21  C   UNL     1      27.558  22.709 -26.395  1.00  0.00     0.170 C 
HETATM   22  C   UNL     1      27.334  23.605 -25.223  1.00  0.00     0.075 C 
ENDROOT
BRANCH  21  23
HETATM   23  C   UNL     1      27.105  23.351 -27.710  1.00  0.00     0.006 A 
HETATM   24  C   UNL     1      27.818  24.412 -28.300  1.00  0.00     0.031 A 
HETATM   25  C   UNL     1      27.389  24.967 -29.506  1.00  0.00     0.013 A 
HETATM   26 BR   UNL     1      28.376  26.385 -30.287  1.00  0.00    -0.051 Br
HETATM   27  C   UNL     1      26.250  24.492 -30.150  1.00  0.00     0.041 A 
HETATM   28  C   UNL     1      25.533  23.447 -29.577  1.00  0.00     0.046 A 
HETATM   29 BR   UNL     1      23.999  22.780 -30.466  1.00  0.00    -0.048 Br
HETATM   30  C   UNL     1      25.954  22.886 -28.366  1.00  0.00     0.091 A 
BRANCH  30  31
HETATM   31  O   UNL     1      25.264  21.847 -27.799  1.00  0.00    -0.359 OA
HETATM   32  H   UNL     1      24.428  22.207 -27.445  1.00  0.00     0.218 HD
ENDBRANCH  30  31
ENDBRANCH  21  23
TORSDOF 2
ENDMDL
