MODEL 1
REMARK VINA RESULT:      -8.4      0.000      0.000
REMARK  4 active torsions:
REMARK  status: ('A' for Active; 'I' for Inactive)
REMARK    1  A    between atoms: O_2  and  C_3 
REMARK    2  A    between atoms: C_5  and  C_6 
REMARK    3  A    between atoms: C_29  and  O_30 
REMARK    4  A    between atoms: C_32  and  O_33 
ROOT
HETATM    1  C   UNL     1      16.648  16.973 -31.295  1.00  0.00     0.210 C 
HETATM    2  O   UNL     1      15.889  15.776 -31.246  1.00  0.00    -0.353 OA
ENDROOT
BRANCH   2   3
HETATM    3  C   UNL     1      14.534  15.840 -31.072  1.00  0.00     0.105 A 
HETATM    4  C   UNL     1      13.661  16.558 -31.912  1.00  0.00     0.049 A 
HETATM    5  C   UNL     1      12.223  16.589 -31.762  1.00  0.00    -0.029 A 
HETATM    6  C   UNL     1      11.703  15.822 -30.700  1.00  0.00     0.049 A 
HETATM    7  C   UNL     1      12.576  15.086 -29.847  1.00  0.00     0.105 A 
HETATM    8  C   UNL     1      13.987  15.122 -30.012  1.00  0.00     0.135 A 
BRANCH   5   9
HETATM    9  C   UNL     1      11.455  17.686 -32.615  1.00  0.00     0.145 C 
HETATM   10  C   UNL     1      10.832  18.883 -31.974  1.00  0.00     0.070 C 
HETATM   11  C   UNL     1       9.549  19.114 -32.341  1.00  0.00     0.086 C 
HETATM   12  C   UNL     1      11.550  19.712 -31.013  1.00  0.00     0.299 C 
HETATM   13  N   UNL     1       8.831  18.262 -33.188  1.00  0.00    -0.228 NA
HETATM   14  C   UNL     1       8.940  20.339 -31.849  1.00  0.00     0.028 A 
HETATM   15  C   UNL     1       9.573  17.565 -34.006  1.00  0.00     0.154 C 
HETATM   16  S   UNL     1       8.964  16.870 -35.495  1.00  0.00    -0.056 SA
HETATM   17  N   UNL     1      10.979  17.636 -34.064  1.00  0.00    -0.213 NA
HETATM   18  C   UNL     1      10.125  18.070 -36.243  1.00  0.00     0.029 A 
HETATM   19  C   UNL     1       9.701  18.829 -37.324  1.00  0.00     0.021 A 
HETATM   20  C   UNL     1      11.093  18.470 -35.227  1.00  0.00     0.035 A 
HETATM   21  C   UNL     1      10.183  20.117 -37.406  1.00  0.00     0.001 A 
HETATM   22  C   UNL     1      11.105  20.588 -36.450  1.00  0.00     0.002 A 
HETATM   23  C   UNL     1      11.591  19.770 -35.377  1.00  0.00     0.025 A 
HETATM   24  C   UNL     1       7.840  20.927 -32.474  1.00  0.00     0.017 A 
HETATM   25  C   UNL     1       9.500  20.965 -30.737  1.00  0.00     0.092 A 
HETATM   26  C   UNL     1       7.256  22.070 -31.929  1.00  0.00     0.001 A 
HETATM   27  C   UNL     1       7.752  22.611 -30.741  1.00  0.00     0.003 A 
HETATM   28  C   UNL     1       8.888  22.065 -30.142  1.00  0.00     0.038 A 
HETATM   29  O   UNL     1      10.755  20.559 -30.241  1.00  0.00    -0.274 OA
HETATM   30  O   UNL     1      12.752  19.589 -30.815  1.00  0.00    -0.259 OA
ENDBRANCH   5   9
BRANCH   7  31
HETATM   31  O   UNL     1      12.204  14.328 -28.769  1.00  0.00    -0.353 OA
HETATM   32  C   UNL     1      10.837  14.154 -28.451  1.00  0.00     0.210 C 
ENDBRANCH   7  31
BRANCH   8  33
HETATM   33  O   UNL     1      14.715  14.382 -29.101  1.00  0.00    -0.351 OA
HETATM   34  C   UNL     1      15.496  13.287 -29.574  1.00  0.00     0.210 C 
ENDBRANCH   8  33
ENDBRANCH   2   3
TORSDOF 4
ENDMDL
MODEL 2
REMARK VINA RESULT:      -7.5      2.088      3.395
REMARK  4 active torsions:
REMARK  status: ('A' for Active; 'I' for Inactive)
REMARK    1  A    between atoms: O_2  and  C_3 
REMARK    2  A    between atoms: C_5  and  C_6 
REMARK    3  A    between atoms: C_29  and  O_30 
REMARK    4  A    between atoms: C_32  and  O_33 
ROOT
HETATM    1  C   UNL     1       9.246  14.628 -29.251  1.00  0.00     0.210 C 
HETATM    2  O   UNL     1      10.544  14.774 -28.700  1.00  0.00    -0.353 OA
ENDROOT
BRANCH   2   3
HETATM    3  C   UNL     1      11.399  15.704 -29.221  1.00  0.00     0.105 A 
HETATM    4  C   UNL     1      11.027  17.016 -29.572  1.00  0.00     0.049 A 
HETATM    5  C   UNL     1      11.937  18.018 -30.078  1.00  0.00    -0.029 A 
HETATM    6  C   UNL     1      13.284  17.616 -30.196  1.00  0.00     0.049 A 
HETATM    7  C   UNL     1      13.675  16.294 -29.838  1.00  0.00     0.105 A 
HETATM    8  C   UNL     1      12.732  15.332 -29.384  1.00  0.00     0.135 A 
BRANCH   5   9
HETATM    9  C   UNL     1      11.271  19.322 -30.693  1.00  0.00     0.145 C 
HETATM   10  C   UNL     1      10.631  20.358 -29.827  1.00  0.00     0.070 C 
HETATM   11  C   UNL     1       9.389  20.728 -30.217  1.00  0.00     0.086 C 
HETATM   12  C   UNL     1      11.291  20.897 -28.644  1.00  0.00     0.299 C 
HETATM   13  N   UNL     1       8.718  20.139 -31.296  1.00  0.00    -0.228 NA
HETATM   14  C   UNL     1       8.776  21.826 -29.487  1.00  0.00     0.028 A 
HETATM   15  C   UNL     1       9.505  19.625 -32.203  1.00  0.00     0.154 C 
HETATM   16  S   UNL     1       8.999  19.336 -33.855  1.00  0.00    -0.056 SA
HETATM   17  N   UNL     1      10.913  19.643 -32.141  1.00  0.00    -0.213 NA
HETATM   18  C   UNL     1      10.250  20.626 -34.204  1.00  0.00     0.029 A 
HETATM   19  C   UNL     1       9.935  21.642 -35.096  1.00  0.00     0.021 A 
HETATM   20  C   UNL     1      11.143  20.725 -33.055  1.00  0.00     0.035 A 
HETATM   21  C   UNL     1      10.457  22.888 -34.828  1.00  0.00     0.001 A 
HETATM   22  C   UNL     1      11.312  23.072 -33.723  1.00  0.00     0.002 A 
HETATM   23  C   UNL     1      11.687  21.999 -32.848  1.00  0.00     0.025 A 
HETATM   24  C   UNL     1       7.747  22.597 -30.028  1.00  0.00     0.017 A 
HETATM   25  C   UNL     1       9.261  22.141 -28.220  1.00  0.00     0.092 A 
HETATM   26  C   UNL     1       7.153  23.602 -29.266  1.00  0.00     0.001 A 
HETATM   27  C   UNL     1       7.565  23.819 -27.949  1.00  0.00     0.003 A 
HETATM   28  C   UNL     1       8.633  23.092 -27.421  1.00  0.00     0.038 A 
HETATM   29  O   UNL     1      10.461  21.570 -27.749  1.00  0.00    -0.274 OA
HETATM   30  O   UNL     1      12.470  20.675 -28.395  1.00  0.00    -0.259 OA
ENDBRANCH   5   9
BRANCH   7  31
HETATM   31  O   UNL     1      14.938  15.771 -29.931  1.00  0.00    -0.353 OA
HETATM   32  C   UNL     1      15.575  15.654 -31.187  1.00  0.00     0.210 C 
ENDBRANCH   7  31
BRANCH   8  33
HETATM   33  O   UNL     1      13.244  14.082 -29.095  1.00  0.00    -0.351 OA
HETATM   34  C   UNL     1      12.882  12.983 -29.929  1.00  0.00     0.210 C 
ENDBRANCH   8  33
ENDBRANCH   2   3
TORSDOF 4
ENDMDL
MODEL 3
REMARK VINA RESULT:      -7.5      2.772      8.039
REMARK  4 active torsions:
REMARK  status: ('A' for Active; 'I' for Inactive)
REMARK    1  A    between atoms: O_2  and  C_3 
REMARK    2  A    between atoms: C_5  and  C_6 
REMARK    3  A    between atoms: C_29  and  O_30 
REMARK    4  A    between atoms: C_32  and  O_33 
ROOT
HETATM    1  C   UNL     1       7.273  21.101 -30.266  1.00  0.00     0.210 C 
HETATM    2  O   UNL     1       8.448  21.716 -30.767  1.00  0.00    -0.353 OA
ENDROOT
BRANCH   2   3
HETATM    3  C   UNL     1       9.504  20.941 -31.158  1.00  0.00     0.105 A 
HETATM    4  C   UNL     1       9.723  19.621 -30.720  1.00  0.00     0.049 A 
HETATM    5  C   UNL     1      10.810  18.779 -31.168  1.00  0.00    -0.029 A 
HETATM    6  C   UNL     1      11.674  19.354 -32.122  1.00  0.00     0.049 A 
HETATM    7  C   UNL     1      11.459  20.687 -32.578  1.00  0.00     0.105 A 
HETATM    8  C   UNL     1      10.399  21.487 -32.074  1.00  0.00     0.135 A 
BRANCH   5   9
HETATM    9  C   UNL     1      11.052  17.449 -30.336  1.00  0.00     0.145 C 
HETATM   10  C   UNL     1      12.422  16.884 -30.143  1.00  0.00     0.070 C 
HETATM   11  C   UNL     1      12.532  15.564 -30.422  1.00  0.00     0.086 C 
HETATM   12  C   UNL     1      13.547  17.706 -29.713  1.00  0.00     0.299 C 
HETATM   13  N   UNL     1      11.474  14.799 -30.928  1.00  0.00    -0.228 NA
HETATM   14  C   UNL     1      13.810  14.938 -30.124  1.00  0.00     0.028 A 
HETATM   15  C   UNL     1      10.287  15.252 -30.622  1.00  0.00     0.154 C 
HETATM   16  S   UNL     1       8.850  14.251 -30.630  1.00  0.00    -0.056 SA
HETATM   17  N   UNL     1      10.049  16.406 -29.850  1.00  0.00    -0.213 NA
HETATM   18  C   UNL     1       8.904  14.586 -28.832  1.00  0.00     0.029 A 
HETATM   19  C   UNL     1       8.697  13.537 -27.947  1.00  0.00     0.021 A 
HETATM   20  C   UNL     1       9.739  15.760 -28.607  1.00  0.00     0.035 A 
HETATM   21  C   UNL     1       9.411  13.567 -26.770  1.00  0.00     0.001 A 
HETATM   22  C   UNL     1      10.259  14.656 -26.486  1.00  0.00     0.002 A 
HETATM   23  C   UNL     1      10.410  15.770 -27.377  1.00  0.00     0.025 A 
HETATM   24  C   UNL     1      13.937  13.562 -29.929  1.00  0.00     0.017 A 
HETATM   25  C   UNL     1      14.936  15.746 -29.992  1.00  0.00     0.092 A 
HETATM   26  C   UNL     1      15.194  13.003 -29.704  1.00  0.00     0.001 A 
HETATM   27  C   UNL     1      16.332  13.813 -29.702  1.00  0.00     0.003 A 
HETATM   28  C   UNL     1      16.206  15.197 -29.836  1.00  0.00     0.038 A 
HETATM   29  O   UNL     1      14.809  17.148 -29.916  1.00  0.00    -0.274 OA
HETATM   30  O   UNL     1      13.402  18.854 -29.310  1.00  0.00    -0.259 OA
ENDBRANCH   5   9
BRANCH   7  31
HETATM   31  O   UNL     1      12.237  21.369 -33.476  1.00  0.00    -0.353 OA
HETATM   32  C   UNL     1      13.493  20.856 -33.873  1.00  0.00     0.210 C 
ENDBRANCH   7  31
BRANCH   8  33
HETATM   33  O   UNL     1      10.321  22.768 -32.586  1.00  0.00    -0.351 OA
HETATM   34  C   UNL     1       9.397  23.031 -33.640  1.00  0.00     0.210 C 
ENDBRANCH   8  33
ENDBRANCH   2   3
TORSDOF 4
ENDMDL
MODEL 4
REMARK VINA RESULT:      -7.3      2.429      7.885
REMARK  4 active torsions:
REMARK  status: ('A' for Active; 'I' for Inactive)
REMARK    1  A    between atoms: O_2  and  C_3 
REMARK    2  A    between atoms: C_5  and  C_6 
REMARK    3  A    between atoms: C_29  and  O_30 
REMARK    4  A    between atoms: C_32  and  O_33 
ROOT
HETATM    1  C   UNL     1       8.559  18.160 -36.044  1.00  0.00     0.210 C 
HETATM    2  O   UNL     1       9.866  18.608 -35.723  1.00  0.00    -0.353 OA
ENDROOT
BRANCH   2   3
HETATM    3  C   UNL     1      10.153  18.995 -34.444  1.00  0.00     0.105 A 
HETATM    4  C   UNL     1      10.676  18.141 -33.455  1.00  0.00     0.049 A 
HETATM    5  C   UNL     1      11.027  18.557 -32.116  1.00  0.00    -0.029 A 
HETATM    6  C   UNL     1      10.831  19.924 -31.830  1.00  0.00     0.049 A 
HETATM    7  C   UNL     1      10.308  20.800 -32.825  1.00  0.00     0.105 A 
HETATM    8  C   UNL     1       9.940  20.332 -34.114  1.00  0.00     0.135 A 
BRANCH   5   9
HETATM    9  C   UNL     1      11.312  17.393 -31.074  1.00  0.00     0.145 C 
HETATM   10  C   UNL     1      12.696  16.896 -30.813  1.00  0.00     0.070 C 
HETATM   11  C   UNL     1      12.830  15.550 -30.865  1.00  0.00     0.086 C 
HETATM   12  C   UNL     1      13.810  17.800 -30.552  1.00  0.00     0.299 C 
HETATM   13  N   UNL     1      11.781  14.690 -31.212  1.00  0.00    -0.228 NA
HETATM   14  C   UNL     1      14.126  15.008 -30.489  1.00  0.00     0.028 A 
HETATM   15  C   UNL     1      10.590  15.166 -30.965  1.00  0.00     0.154 C 
HETATM   16  S   UNL     1       9.175  14.151 -30.775  1.00  0.00    -0.056 SA
HETATM   17  N   UNL     1      10.339  16.431 -30.398  1.00  0.00    -0.213 NA
HETATM   18  C   UNL     1       9.249  14.790 -29.062  1.00  0.00     0.029 A 
HETATM   19  C   UNL     1       9.079  13.904 -28.007  1.00  0.00     0.021 A 
HETATM   20  C   UNL     1      10.063  16.001 -29.057  1.00  0.00     0.035 A 
HETATM   21  C   UNL     1       9.811  14.149 -26.866  1.00  0.00     0.001 A 
HETATM   22  C   UNL     1      10.639  15.287 -26.789  1.00  0.00     0.002 A 
HETATM   23  C   UNL     1      10.752  16.235 -27.860  1.00  0.00     0.025 A 
HETATM   24  C   UNL     1      14.286  13.688 -30.064  1.00  0.00     0.017 A 
HETATM   25  C   UNL     1      15.236  15.848 -30.518  1.00  0.00     0.092 A 
HETATM   26  C   UNL     1      15.558  13.200 -29.770  1.00  0.00     0.001 A 
HETATM   27  C   UNL     1      16.678  14.020 -29.929  1.00  0.00     0.003 A 
HETATM   28  C   UNL     1      16.520  15.357 -30.295  1.00  0.00     0.038 A 
HETATM   29  O   UNL     1      15.080  17.239 -30.680  1.00  0.00    -0.274 OA
HETATM   30  O   UNL     1      13.646  18.997 -30.348  1.00  0.00    -0.259 OA
ENDBRANCH   5   9
BRANCH   7  31
HETATM   31  O   UNL     1      10.045  22.136 -32.668  1.00  0.00    -0.353 OA
HETATM   32  C   UNL     1      11.098  23.053 -32.446  1.00  0.00     0.210 C 
ENDBRANCH   7  31
BRANCH   8  33
HETATM   33  O   UNL     1       9.424  21.284 -34.972  1.00  0.00    -0.351 OA
HETATM   34  C   UNL     1      10.267  21.819 -35.990  1.00  0.00     0.210 C 
ENDBRANCH   8  33
ENDBRANCH   2   3
TORSDOF 4
ENDMDL
MODEL 5
REMARK VINA RESULT:      -7.3      2.373      7.819
REMARK  4 active torsions:
REMARK  status: ('A' for Active; 'I' for Inactive)
REMARK    1  A    between atoms: O_2  and  C_3 
REMARK    2  A    between atoms: C_5  and  C_6 
REMARK    3  A    between atoms: C_29  and  O_30 
REMARK    4  A    between atoms: C_32  and  O_33 
ROOT
HETATM    1  C   UNL     1       7.584  22.308 -31.849  1.00  0.00     0.210 C 
HETATM    2  O   UNL     1       8.567  22.680 -32.801  1.00  0.00    -0.353 OA
ENDROOT
BRANCH   2   3
HETATM    3  C   UNL     1       9.381  21.724 -33.342  1.00  0.00     0.105 A 
HETATM    4  C   UNL     1       9.708  20.510 -32.707  1.00  0.00     0.049 A 
HETATM    5  C   UNL     1      10.528  19.475 -33.295  1.00  0.00    -0.029 A 
HETATM    6  C   UNL     1      10.997  19.733 -34.599  1.00  0.00     0.049 A 
HETATM    7  C   UNL     1      10.667  20.955 -35.254  1.00  0.00     0.105 A 
HETATM    8  C   UNL     1       9.891  21.959 -34.616  1.00  0.00     0.135 A 
BRANCH   5   9
HETATM    9  C   UNL     1      11.022  18.331 -32.310  1.00  0.00     0.145 C 
HETATM   10  C   UNL     1      12.474  18.095 -32.049  1.00  0.00     0.070 C 
HETATM   11  C   UNL     1      12.865  16.804 -32.169  1.00  0.00     0.086 C 
HETATM   12  C   UNL     1      13.390  19.180 -31.718  1.00  0.00     0.299 C 
HETATM   13  N   UNL     1      12.004  15.780 -32.581  1.00  0.00    -0.228 NA
HETATM   14  C   UNL     1      14.237  16.500 -31.796  1.00  0.00     0.028 A 
HETATM   15  C   UNL     1      10.741  16.005 -32.333  1.00  0.00     0.154 C 
HETATM   16  S   UNL     1       9.546  14.729 -32.224  1.00  0.00    -0.056 SA
HETATM   17  N   UNL     1      10.247  17.165 -31.704  1.00  0.00    -0.213 NA
HETATM   18  C   UNL     1       9.481  15.274 -30.478  1.00  0.00     0.029 A 
HETATM   19  C   UNL     1       9.475  14.315 -29.476  1.00  0.00     0.021 A 
HETATM   20  C   UNL     1      10.046  16.616 -30.393  1.00  0.00     0.035 A 
HETATM   21  C   UNL     1      10.135  14.632 -28.309  1.00  0.00     0.001 A 
HETATM   22  C   UNL     1      10.729  15.901 -28.156  1.00  0.00     0.002 A 
HETATM   23  C   UNL     1      10.667  16.911 -29.173  1.00  0.00     0.025 A 
HETATM   24  C   UNL     1      14.644  15.215 -31.439  1.00  0.00     0.017 A 
HETATM   25  C   UNL     1      15.166  17.538 -31.759  1.00  0.00     0.092 A 
HETATM   26  C   UNL     1      15.984  14.963 -31.146  1.00  0.00     0.001 A 
HETATM   27  C   UNL     1      16.927  15.990 -31.240  1.00  0.00     0.003 A 
HETATM   28  C   UNL     1      16.518  17.291 -31.538  1.00  0.00     0.038 A 
HETATM   29  O   UNL     1      14.746  18.880 -31.851  1.00  0.00    -0.274 OA
HETATM   30  O   UNL     1      12.998  20.310 -31.455  1.00  0.00    -0.259 OA
ENDBRANCH   5   9
BRANCH   7  31
HETATM   31  O   UNL     1      11.079  21.339 -36.503  1.00  0.00    -0.353 OA
HETATM   32  C   UNL     1      10.670  20.617 -37.647  1.00  0.00     0.210 C 
ENDBRANCH   7  31
BRANCH   8  33
HETATM   33  O   UNL     1       9.667  23.104 -35.357  1.00  0.00    -0.351 OA
HETATM   34  C   UNL     1       8.413  23.259 -36.017  1.00  0.00     0.210 C 
ENDBRANCH   8  33
ENDBRANCH   2   3
TORSDOF 4
ENDMDL
MODEL 6
REMARK VINA RESULT:      -7.2     26.785     29.390
REMARK  4 active torsions:
REMARK  status: ('A' for Active; 'I' for Inactive)
REMARK    1  A    between atoms: O_2  and  C_3 
REMARK    2  A    between atoms: C_5  and  C_6 
REMARK    3  A    between atoms: C_29  and  O_30 
REMARK    4  A    between atoms: C_32  and  O_33 
ROOT
HETATM    1  C   UNL     1      32.206  -1.748 -24.918  1.00  0.00     0.210 C 
HETATM    2  O   UNL     1      31.530  -2.674 -25.753  1.00  0.00    -0.353 OA
ENDROOT
BRANCH   2   3
HETATM    3  C   UNL     1      30.374  -3.258 -25.316  1.00  0.00     0.105 A 
HETATM    4  C   UNL     1      29.697  -2.894 -24.137  1.00  0.00     0.049 A 
HETATM    5  C   UNL     1      28.449  -3.475 -23.697  1.00  0.00    -0.029 A 
HETATM    6  C   UNL     1      27.899  -4.458 -24.546  1.00  0.00     0.049 A 
HETATM    7  C   UNL     1      28.572  -4.831 -25.745  1.00  0.00     0.105 A 
HETATM    8  C   UNL     1      29.819  -4.258 -26.112  1.00  0.00     0.135 A 
BRANCH   5   9
HETATM    9  C   UNL     1      28.011  -3.146 -22.206  1.00  0.00     0.145 C 
HETATM   10  C   UNL     1      27.944  -1.742 -21.701  1.00  0.00     0.070 C 
HETATM   11  C   UNL     1      28.574  -1.537 -20.520  1.00  0.00     0.086 C 
HETATM   12  C   UNL     1      27.273  -0.681 -22.443  1.00  0.00     0.299 C 
HETATM   13  N   UNL     1      29.301  -2.535 -19.859  1.00  0.00    -0.228 NA
HETATM   14  C   UNL     1      28.426  -0.221 -19.921  1.00  0.00     0.028 A 
HETATM   15  C   UNL     1      28.914  -3.753 -20.130  1.00  0.00     0.154 C 
HETATM   16  S   UNL     1      29.239  -5.116 -19.079  1.00  0.00    -0.056 SA
HETATM   17  N   UNL     1      27.860  -4.078 -21.007  1.00  0.00    -0.213 NA
HETATM   18  C   UNL     1      27.417  -5.101 -18.904  1.00  0.00     0.029 A 
HETATM   19  C   UNL     1      26.864  -5.240 -17.639  1.00  0.00     0.021 A 
HETATM   20  C   UNL     1      26.853  -4.352 -20.021  1.00  0.00     0.035 A 
HETATM   21  C   UNL     1      25.705  -4.540 -17.388  1.00  0.00     0.001 A 
HETATM   22  C   UNL     1      25.108  -3.774 -18.409  1.00  0.00     0.002 A 
HETATM   23  C   UNL     1      25.651  -3.694 -19.734  1.00  0.00     0.025 A 
HETATM   24  C   UNL     1      28.617   0.001 -18.557  1.00  0.00     0.017 A 
HETATM   25  C   UNL     1      28.044   0.845 -20.733  1.00  0.00     0.092 A 
HETATM   26  C   UNL     1      28.520   1.292 -18.040  1.00  0.00     0.001 A 
HETATM   27  C   UNL     1      28.263   2.370 -18.891  1.00  0.00     0.003 A 
HETATM   28  C   UNL     1      28.012   2.149 -20.246  1.00  0.00     0.038 A 
HETATM   29  O   UNL     1      27.587   0.618 -22.047  1.00  0.00    -0.274 OA
HETATM   30  O   UNL     1      26.572  -0.910 -23.421  1.00  0.00    -0.259 OA
ENDBRANCH   5   9
BRANCH   7  31
HETATM   31  O   UNL     1      28.163  -5.786 -26.638  1.00  0.00    -0.353 OA
HETATM   32  C   UNL     1      27.800  -7.077 -26.192  1.00  0.00     0.210 C 
ENDBRANCH   7  31
BRANCH   8  33
HETATM   33  O   UNL     1      30.372  -4.729 -27.288  1.00  0.00    -0.351 OA
HETATM   34  C   UNL     1      31.425  -5.687 -27.215  1.00  0.00     0.210 C 
ENDBRANCH   8  33
ENDBRANCH   2   3
TORSDOF 4
ENDMDL
MODEL 7
REMARK VINA RESULT:      -7.2      2.589      7.006
REMARK  4 active torsions:
REMARK  status: ('A' for Active; 'I' for Inactive)
REMARK    1  A    between atoms: O_2  and  C_3 
REMARK    2  A    between atoms: C_5  and  C_6 
REMARK    3  A    between atoms: C_29  and  O_30 
REMARK    4  A    between atoms: C_32  and  O_33 
ROOT
HETATM    1  C   UNL     1       7.271  23.607 -28.469  1.00  0.00     0.210 C 
HETATM    2  O   UNL     1       8.007  24.048 -29.599  1.00  0.00    -0.353 OA
ENDROOT
BRANCH   2   3
HETATM    3  C   UNL     1       9.223  23.487 -29.874  1.00  0.00     0.105 A 
HETATM    4  C   UNL     1       9.412  22.382 -30.724  1.00  0.00     0.049 A 
HETATM    5  C   UNL     1      10.701  21.816 -31.057  1.00  0.00    -0.029 A 
HETATM    6  C   UNL     1      11.817  22.458 -30.482  1.00  0.00     0.049 A 
HETATM    7  C   UNL     1      11.638  23.581 -29.624  1.00  0.00     0.105 A 
HETATM    8  C   UNL     1      10.347  24.073 -29.295  1.00  0.00     0.135 A 
BRANCH   5   9
HETATM    9  C   UNL     1      10.678  20.403 -31.781  1.00  0.00     0.145 C 
HETATM   10  C   UNL     1      10.802  19.127 -31.014  1.00  0.00     0.070 C 
HETATM   11  C   UNL     1      11.725  18.264 -31.502  1.00  0.00     0.086 C 
HETATM   12  C   UNL     1      10.006  18.857 -29.823  1.00  0.00     0.299 C 
HETATM   13  N   UNL     1      12.556  18.566 -32.587  1.00  0.00    -0.228 NA
HETATM   14  C   UNL     1      11.791  16.955 -30.872  1.00  0.00     0.028 A 
HETATM   15  C   UNL     1      12.062  19.449 -33.414  1.00  0.00     0.154 C 
HETATM   16  S   UNL     1      12.591  19.602 -35.077  1.00  0.00    -0.056 SA
HETATM   17  N   UNL     1      10.804  20.066 -33.264  1.00  0.00    -0.213 NA
HETATM   18  C   UNL     1      10.879  19.050 -35.415  1.00  0.00     0.029 A 
HETATM   19  C   UNL     1      10.667  18.074 -36.379  1.00  0.00     0.021 A 
HETATM   20  C   UNL     1      10.076  19.279 -34.219  1.00  0.00     0.035 A 
HETATM   21  C   UNL     1       9.642  17.184 -36.145  1.00  0.00     0.001 A 
HETATM   22  C   UNL     1       8.833  17.323 -35.000  1.00  0.00     0.002 A 
HETATM   23  C   UNL     1       9.018  18.379 -34.047  1.00  0.00     0.025 A 
HETATM   24  C   UNL     1      12.337  15.846 -31.518  1.00  0.00     0.017 A 
HETATM   25  C   UNL     1      11.256  16.800 -29.595  1.00  0.00     0.092 A 
HETATM   26  C   UNL     1      12.431  14.626 -30.849  1.00  0.00     0.001 A 
HETATM   27  C   UNL     1      12.007  14.519 -29.522  1.00  0.00     0.003 A 
HETATM   28  C   UNL     1      11.405  15.608 -28.890  1.00  0.00     0.038 A 
HETATM   29  O   UNL     1      10.466  17.814 -29.019  1.00  0.00    -0.274 OA
HETATM   30  O   UNL     1       9.067  19.569 -29.489  1.00  0.00    -0.259 OA
ENDBRANCH   5   9
BRANCH   7  31
HETATM   31  O   UNL     1      12.631  24.274 -28.982  1.00  0.00    -0.353 OA
HETATM   32  C   UNL     1      13.618  24.964 -29.722  1.00  0.00     0.210 C 
ENDBRANCH   7  31
BRANCH   8  33
HETATM   33  O   UNL     1      10.319  25.153 -28.434  1.00  0.00    -0.351 OA
HETATM   34  C   UNL     1      10.191  26.464 -28.981  1.00  0.00     0.210 C 
ENDBRANCH   8  33
ENDBRANCH   2   3
TORSDOF 4
ENDMDL
MODEL 8
REMARK VINA RESULT:      -6.9      2.724      6.644
REMARK  4 active torsions:
REMARK  status: ('A' for Active; 'I' for Inactive)
REMARK    1  A    between atoms: O_2  and  C_3 
REMARK    2  A    between atoms: C_5  and  C_6 
REMARK    3  A    between atoms: C_29  and  O_30 
REMARK    4  A    between atoms: C_32  and  O_33 
ROOT
HETATM    1  C   UNL     1      14.814  23.571 -30.267  1.00  0.00     0.210 C 
HETATM    2  O   UNL     1      13.715  23.787 -29.397  1.00  0.00    -0.353 OA
ENDROOT
BRANCH   2   3
HETATM    3  C   UNL     1      12.473  23.344 -29.755  1.00  0.00     0.105 A 
HETATM    4  C   UNL     1      12.206  22.060 -30.266  1.00  0.00     0.049 A 
HETATM    5  C   UNL     1      10.887  21.569 -30.600  1.00  0.00    -0.029 A 
HETATM    6  C   UNL     1       9.824  22.466 -30.365  1.00  0.00     0.049 A 
HETATM    7  C   UNL     1      10.081  23.766 -29.841  1.00  0.00     0.105 A 
HETATM    8  C   UNL     1      11.401  24.215 -29.569  1.00  0.00     0.135 A 
BRANCH   5   9
HETATM    9  C   UNL     1      10.834  20.221 -31.437  1.00  0.00     0.145 C 
HETATM   10  C   UNL     1      10.896  18.884 -30.774  1.00  0.00     0.070 C 
HETATM   11  C   UNL     1      11.800  18.031 -31.311  1.00  0.00     0.086 C 
HETATM   12  C   UNL     1      10.064  18.547 -29.625  1.00  0.00     0.299 C 
HETATM   13  N   UNL     1      12.667  18.389 -32.350  1.00  0.00    -0.228 NA
HETATM   14  C   UNL     1      11.808  16.674 -30.788  1.00  0.00     0.028 A 
HETATM   15  C   UNL     1      12.222  19.352 -33.113  1.00  0.00     0.154 C 
HETATM   16  S   UNL     1      12.795  19.620 -34.747  1.00  0.00    -0.056 SA
HETATM   17  N   UNL     1      10.983  20.000 -32.939  1.00  0.00    -0.213 NA
HETATM   18  C   UNL     1      11.074  19.158 -35.164  1.00  0.00     0.029 A 
HETATM   19  C   UNL     1      10.851  18.271 -36.207  1.00  0.00     0.021 A 
HETATM   20  C   UNL     1      10.252  19.319 -33.970  1.00  0.00     0.035 A 
HETATM   21  C   UNL     1       9.792  17.402 -36.068  1.00  0.00     0.001 A 
HETATM   22  C   UNL     1       8.962  17.477 -34.932  1.00  0.00     0.002 A 
HETATM   23  C   UNL     1       9.159  18.446 -33.893  1.00  0.00     0.025 A 
HETATM   24  C   UNL     1      12.331  15.601 -31.510  1.00  0.00     0.017 A 
HETATM   25  C   UNL     1      11.238  16.435 -29.539  1.00  0.00     0.092 A 
HETATM   26  C   UNL     1      12.367  14.329 -30.941  1.00  0.00     0.001 A 
HETATM   27  C   UNL     1      11.909  14.131 -29.636  1.00  0.00     0.003 A 
HETATM   28  C   UNL     1      11.330  15.186 -28.929  1.00  0.00     0.038 A 
HETATM   29  O   UNL     1      10.469  17.428 -28.899  1.00  0.00    -0.274 OA
HETATM   30  O   UNL     1       9.142  19.263 -29.253  1.00  0.00    -0.259 OA
ENDBRANCH   5   9
BRANCH   7  31
HETATM   31  O   UNL     1       9.147  24.737 -29.594  1.00  0.00    -0.353 OA
HETATM   32  C   UNL     1       8.188  24.566 -28.570  1.00  0.00     0.210 C 
ENDBRANCH   7  31
BRANCH   8  33
HETATM   33  O   UNL     1      11.507  25.505 -29.087  1.00  0.00    -0.351 OA
HETATM   34  C   UNL     1      11.937  26.535 -29.975  1.00  0.00     0.210 C 
ENDBRANCH   8  33
ENDBRANCH   2   3
TORSDOF 4
ENDMDL
MODEL 9
REMARK VINA RESULT:      -6.8      3.673      5.088
REMARK  4 active torsions:
REMARK  status: ('A' for Active; 'I' for Inactive)
REMARK    1  A    between atoms: O_2  and  C_3 
REMARK    2  A    between atoms: C_5  and  C_6 
REMARK    3  A    between atoms: C_29  and  O_30 
REMARK    4  A    between atoms: C_32  and  O_33 
ROOT
HETATM    1  C   UNL     1       8.632  17.859 -30.744  1.00  0.00     0.210 C 
HETATM    2  O   UNL     1       9.612  16.882 -30.430  1.00  0.00    -0.353 OA
ENDROOT
BRANCH   2   3
HETATM    3  C   UNL     1      10.926  17.247 -30.340  1.00  0.00     0.105 A 
HETATM    4  C   UNL     1      11.390  18.571 -30.447  1.00  0.00     0.049 A 
HETATM    5  C   UNL     1      12.773  18.968 -30.304  1.00  0.00    -0.029 A 
HETATM    6  C   UNL     1      13.681  17.927 -30.022  1.00  0.00     0.049 A 
HETATM    7  C   UNL     1      13.223  16.583 -29.905  1.00  0.00     0.105 A 
HETATM    8  C   UNL     1      11.857  16.240 -30.096  1.00  0.00     0.135 A 
BRANCH   5   9
HETATM    9  C   UNL     1      13.126  20.449 -30.755  1.00  0.00     0.145 C 
HETATM   10  C   UNL     1      12.308  21.619 -30.314  1.00  0.00     0.070 C 
HETATM   11  C   UNL     1      11.932  22.452 -31.314  1.00  0.00     0.086 C 
HETATM   12  C   UNL     1      11.930  21.821 -28.921  1.00  0.00     0.299 C 
HETATM   13  N   UNL     1      12.213  22.203 -32.663  1.00  0.00    -0.228 NA
HETATM   14  C   UNL     1      11.248  23.673 -30.922  1.00  0.00     0.028 A 
HETATM   15  C   UNL     1      13.268  21.460 -32.865  1.00  0.00     0.154 C 
HETATM   16  S   UNL     1      14.153  21.447 -34.377  1.00  0.00    -0.056 SA
HETATM   17  N   UNL     1      14.082  20.935 -31.841  1.00  0.00    -0.213 NA
HETATM   18  C   UNL     1      15.468  22.171 -33.329  1.00  0.00     0.029 A 
HETATM   19  C   UNL     1      16.182  23.261 -33.807  1.00  0.00     0.021 A 
HETATM   20  C   UNL     1      15.159  21.879 -31.934  1.00  0.00     0.035 A 
HETATM   21  C   UNL     1      16.574  24.201 -32.880  1.00  0.00     0.001 A 
HETATM   22  C   UNL     1      16.294  24.004 -31.513  1.00  0.00     0.002 A 
HETATM   23  C   UNL     1      15.617  22.838 -31.023  1.00  0.00     0.025 A 
HETATM   24  C   UNL     1      11.205  24.799 -31.746  1.00  0.00     0.017 A 
HETATM   25  C   UNL     1      10.649  23.732 -29.666  1.00  0.00     0.092 A 
HETATM   26  C   UNL     1      10.487  25.926 -31.350  1.00  0.00     0.001 A 
HETATM   27  C   UNL     1       9.784  25.921 -30.143  1.00  0.00     0.003 A 
HETATM   28  C   UNL     1       9.871  24.822 -29.286  1.00  0.00     0.038 A 
HETATM   29  O   UNL     1      10.893  22.728 -28.707  1.00  0.00    -0.274 OA
HETATM   30  O   UNL     1      12.409  21.156 -28.011  1.00  0.00    -0.259 OA
ENDBRANCH   5   9
BRANCH   7  31
HETATM   31  O   UNL     1      14.000  15.482 -29.662  1.00  0.00    -0.353 OA
HETATM   32  C   UNL     1      15.159  15.238 -30.435  1.00  0.00     0.210 C 
ENDBRANCH   7  31
BRANCH   8  33
HETATM   33  O   UNL     1      11.555  14.897 -29.977  1.00  0.00    -0.351 OA
HETATM   34  C   UNL     1      11.092  14.407 -28.721  1.00  0.00     0.210 C 
ENDBRANCH   8  33
ENDBRANCH   2   3
TORSDOF 4
ENDMDL
