MODEL 1
REMARK VINA RESULT:     -10.0      0.000      0.000
REMARK  1 active torsions:
REMARK  status: ('A' for Active; 'I' for Inactive)
REMARK    1  A    between atoms: C_21  and  C_22 
ROOT
HETATM    1  O   UNL     1       7.686  16.139 -31.271  1.00  0.00    -0.259 OA
HETATM    2  C   UNL     1       8.626  15.715 -30.613  1.00  0.00     0.299 C 
HETATM    3  O   UNL     1       8.638  14.438 -30.083  1.00  0.00    -0.274 OA
HETATM    4  C   UNL     1       9.275  14.357 -28.841  1.00  0.00     0.092 C 
HETATM    5  C   UNL     1       8.716  13.478 -27.922  1.00  0.00     0.038 C 
HETATM    6  C   UNL     1       9.088  13.588 -26.589  1.00  0.00     0.003 C 
HETATM    7  C   UNL     1      10.085  14.498 -26.220  1.00  0.00     0.001 C 
HETATM    8  C   UNL     1      10.745  15.271 -27.188  1.00  0.00     0.017 C 
HETATM    9  C   UNL     1      10.322  15.224 -28.518  1.00  0.00     0.028 C 
HETATM   10  C   UNL     1      10.816  16.115 -29.577  1.00  0.00     0.087 C 
HETATM   11  N   UNL     1      12.120  16.572 -29.595  1.00  0.00    -0.223 NA
HETATM   12  C   UNL     1      12.442  17.248 -30.657  1.00  0.00     0.175 A 
HETATM   13  S   UNL     1      14.121  17.751 -30.969  1.00  0.00    -0.050 SA
HETATM   14  C   UNL     1      13.622  18.515 -32.509  1.00  0.00     0.035 A 
HETATM   15  C   UNL     1      14.415  19.207 -33.414  1.00  0.00     0.021 A 
HETATM   16  C   UNL     1      13.805  19.783 -34.532  1.00  0.00     0.002 A 
HETATM   17  C   UNL     1      12.428  19.642 -34.738  1.00  0.00     0.002 A 
HETATM   18  C   UNL     1      11.647  18.918 -33.834  1.00  0.00     0.031 A 
HETATM   19  C   UNL     1      12.239  18.362 -32.706  1.00  0.00     0.055 A 
HETATM   20  N   UNL     1      11.613  17.648 -31.678  1.00  0.00    -0.311 N 
HETATM   21  C   UNL     1      10.182  17.426 -31.603  1.00  0.00     0.167 C 
HETATM   22  C   UNL     1       9.913  16.431 -30.523  1.00  0.00     0.075 C 
ENDROOT
BRANCH  21  23
HETATM   23  C   UNL     1       9.429  18.737 -31.362  1.00  0.00    -0.029 A 
HETATM   24  C   UNL     1       8.583  19.308 -32.331  1.00  0.00     0.010 A 
HETATM   25  C   UNL     1       7.935  20.522 -32.087  1.00  0.00     0.002 A 
HETATM   26  C   UNL     1       8.121  21.180 -30.871  1.00  0.00     0.024 A 
HETATM   27  C   UNL     1       8.947  20.621 -29.902  1.00  0.00     0.034 A 
HETATM   28 CL   UNL     1       9.171  21.419 -28.395  1.00  0.00    -0.084 Cl
HETATM   29  C   UNL     1       9.601  19.414 -30.143  1.00  0.00     0.033 A 
ENDBRANCH  21  23
TORSDOF 1
ENDMDL
MODEL 2
REMARK VINA RESULT:      -9.4      2.644      4.102
REMARK  1 active torsions:
REMARK  status: ('A' for Active; 'I' for Inactive)
REMARK    1  A    between atoms: C_21  and  C_22 
ROOT
HETATM    1  O   UNL     1      10.989  16.572 -28.507  1.00  0.00    -0.259 OA
HETATM    2  C   UNL     1      11.661  16.090 -29.408  1.00  0.00     0.299 C 
HETATM    3  O   UNL     1      12.061  14.766 -29.402  1.00  0.00    -0.274 OA
HETATM    4  C   UNL     1      13.327  14.566 -29.959  1.00  0.00     0.092 C 
HETATM    5  C   UNL     1      14.116  13.596 -29.354  1.00  0.00     0.038 C 
HETATM    6  C   UNL     1      15.475  13.575 -29.639  1.00  0.00     0.003 C 
HETATM    7  C   UNL     1      15.996  14.449 -30.598  1.00  0.00     0.001 C 
HETATM    8  C   UNL     1      15.155  15.319 -31.310  1.00  0.00     0.017 C 
HETATM    9  C   UNL     1      13.802  15.402 -30.973  1.00  0.00     0.028 C 
HETATM   10  C   UNL     1      12.870  16.398 -31.522  1.00  0.00     0.087 C 
HETATM   11  N   UNL     1      12.983  16.863 -32.819  1.00  0.00    -0.223 NA
HETATM   12  C   UNL     1      12.016  17.643 -33.199  1.00  0.00     0.175 A 
HETATM   13  S   UNL     1      11.865  18.184 -34.889  1.00  0.00    -0.050 SA
HETATM   14  C   UNL     1      10.379  19.095 -34.479  1.00  0.00     0.035 A 
HETATM   15  C   UNL     1       9.600  19.880 -35.320  1.00  0.00     0.021 A 
HETATM   16  C   UNL     1       8.508  20.561 -34.775  1.00  0.00     0.002 A 
HETATM   17  C   UNL     1       8.200  20.432 -33.416  1.00  0.00     0.002 A 
HETATM   18  C   UNL     1       8.976  19.617 -32.588  1.00  0.00     0.031 A 
HETATM   19  C   UNL     1      10.079  18.954 -33.114  1.00  0.00     0.055 A 
HETATM   20  N   UNL     1      10.988  18.138 -32.432  1.00  0.00    -0.311 N 
HETATM   21  C   UNL     1      10.948  17.901 -31.003  1.00  0.00     0.167 C 
HETATM   22  C   UNL     1      11.904  16.801 -30.677  1.00  0.00     0.075 C 
ENDROOT
BRANCH  21  23
HETATM   23  C   UNL     1      11.269  19.177 -30.219  1.00  0.00    -0.029 A 
HETATM   24  C   UNL     1      12.540  19.779 -30.249  1.00  0.00     0.010 A 
HETATM   25  C   UNL     1      12.804  20.926 -29.496  1.00  0.00     0.002 A 
HETATM   26  C   UNL     1      11.801  21.489 -28.706  1.00  0.00     0.024 A 
HETATM   27  C   UNL     1      10.538  20.908 -28.676  1.00  0.00     0.034 A 
HETATM   28 CL   UNL     1       9.292  21.603 -27.715  1.00  0.00    -0.084 Cl
HETATM   29  C   UNL     1      10.271  19.760 -29.419  1.00  0.00     0.033 A 
ENDBRANCH  21  23
TORSDOF 1
ENDMDL
MODEL 3
REMARK VINA RESULT:      -8.8      3.563      6.588
REMARK  1 active torsions:
REMARK  status: ('A' for Active; 'I' for Inactive)
REMARK    1  A    between atoms: C_21  and  C_22 
ROOT
HETATM    1  O   UNL     1      10.957  19.041 -29.479  1.00  0.00    -0.259 OA
HETATM    2  C   UNL     1      11.919  19.583 -30.008  1.00  0.00     0.299 C 
HETATM    3  O   UNL     1      12.200  20.925 -29.828  1.00  0.00    -0.274 OA
HETATM    4  C   UNL     1      12.738  21.537 -30.963  1.00  0.00     0.092 C 
HETATM    5  C   UNL     1      12.340  22.847 -31.200  1.00  0.00     0.038 C 
HETATM    6  C   UNL     1      12.569  23.392 -32.456  1.00  0.00     0.003 C 
HETATM    7  C   UNL     1      13.282  22.660 -33.411  1.00  0.00     0.001 C 
HETATM    8  C   UNL     1      13.807  21.396 -33.101  1.00  0.00     0.017 C 
HETATM    9  C   UNL     1      13.514  20.808 -31.868  1.00  0.00     0.028 C 
HETATM   10  C   UNL     1      13.856  19.425 -31.506  1.00  0.00     0.087 C 
HETATM   11  N   UNL     1      15.007  18.815 -31.970  1.00  0.00    -0.223 NA
HETATM   12  C   UNL     1      15.237  17.640 -31.466  1.00  0.00     0.175 A 
HETATM   13  S   UNL     1      16.762  16.775 -31.774  1.00  0.00    -0.050 SA
HETATM   14  C   UNL     1      16.213  15.412 -30.751  1.00  0.00     0.035 A 
HETATM   15  C   UNL     1      16.882  14.226 -30.479  1.00  0.00     0.021 A 
HETATM   16  C   UNL     1      16.239  13.261 -29.698  1.00  0.00     0.002 A 
HETATM   17  C   UNL     1      14.959  13.502 -29.188  1.00  0.00     0.002 A 
HETATM   18  C   UNL     1      14.309  14.712 -29.446  1.00  0.00     0.031 A 
HETATM   19  C   UNL     1      14.929  15.669 -30.241  1.00  0.00     0.055 A 
HETATM   20  N   UNL     1      14.417  16.909 -30.638  1.00  0.00    -0.311 N 
HETATM   21  C   UNL     1      13.083  17.374 -30.316  1.00  0.00     0.167 C 
HETATM   22  C   UNL     1      12.980  18.817 -30.686  1.00  0.00     0.075 C 
ENDROOT
BRANCH  21  23
HETATM   23  C   UNL     1      12.016  16.533 -31.022  1.00  0.00    -0.029 A 
HETATM   24  C   UNL     1      12.042  16.294 -32.409  1.00  0.00     0.010 A 
HETATM   25  C   UNL     1      11.034  15.547 -33.023  1.00  0.00     0.002 A 
HETATM   26  C   UNL     1       9.988  15.026 -32.261  1.00  0.00     0.024 A 
HETATM   27  C   UNL     1       9.956  15.248 -30.888  1.00  0.00     0.034 A 
HETATM   28 CL   UNL     1       8.677  14.598 -29.940  1.00  0.00    -0.084 Cl
HETATM   29  C   UNL     1      10.955  15.998 -30.272  1.00  0.00     0.033 A 
ENDBRANCH  21  23
TORSDOF 1
ENDMDL
MODEL 4
REMARK VINA RESULT:      -8.6      2.939      6.555
REMARK  1 active torsions:
REMARK  status: ('A' for Active; 'I' for Inactive)
REMARK    1  A    between atoms: C_21  and  C_22 
ROOT
HETATM    1  O   UNL     1      13.141  18.548 -33.562  1.00  0.00    -0.259 OA
HETATM    2  C   UNL     1      12.095  18.129 -34.039  1.00  0.00     0.299 C 
HETATM    3  O   UNL     1      11.961  17.842 -35.385  1.00  0.00    -0.274 OA
HETATM    4  C   UNL     1      10.691  18.129 -35.891  1.00  0.00     0.092 C 
HETATM    5  C   UNL     1      10.646  18.634 -37.185  1.00  0.00     0.038 C 
HETATM    6  C   UNL     1       9.474  19.237 -37.620  1.00  0.00     0.003 C 
HETATM    7  C   UNL     1       8.342  19.230 -36.798  1.00  0.00     0.001 C 
HETATM    8  C   UNL     1       8.364  18.581 -35.553  1.00  0.00     0.017 C 
HETATM    9  C   UNL     1       9.560  18.042 -35.075  1.00  0.00     0.028 C 
HETATM   10  C   UNL     1       9.744  17.502 -33.720  1.00  0.00     0.087 C 
HETATM   11  N   UNL     1       8.723  16.852 -33.051  1.00  0.00    -0.223 NA
HETATM   12  C   UNL     1       9.071  16.323 -31.916  1.00  0.00     0.175 A 
HETATM   13  S   UNL     1       7.964  15.274 -30.999  1.00  0.00    -0.050 SA
HETATM   14  C   UNL     1       9.211  15.037 -29.736  1.00  0.00     0.035 A 
HETATM   15  C   UNL     1       9.109  14.301 -28.563  1.00  0.00     0.021 A 
HETATM   16  C   UNL     1      10.192  14.301 -27.679  1.00  0.00     0.002 A 
HETATM   17  C   UNL     1      11.357  15.012 -27.987  1.00  0.00     0.002 A 
HETATM   18  C   UNL     1      11.456  15.725 -29.184  1.00  0.00     0.031 A 
HETATM   19  C   UNL     1      10.377  15.752 -30.060  1.00  0.00     0.055 A 
HETATM   20  N   UNL     1      10.280  16.442 -31.273  1.00  0.00    -0.311 N 
HETATM   21  C   UNL     1      11.313  17.318 -31.790  1.00  0.00     0.167 C 
HETATM   22  C   UNL     1      10.972  17.675 -33.199  1.00  0.00     0.075 C 
ENDROOT
BRANCH  21  23
HETATM   23  C   UNL     1      11.473  18.565 -30.915  1.00  0.00    -0.029 A 
HETATM   24  C   UNL     1      12.719  18.973 -30.406  1.00  0.00     0.010 A 
HETATM   25  C   UNL     1      12.821  20.100 -29.586  1.00  0.00     0.002 A 
HETATM   26  C   UNL     1      11.679  20.836 -29.265  1.00  0.00     0.024 A 
HETATM   27  C   UNL     1      10.443  20.447 -29.770  1.00  0.00     0.034 A 
HETATM   28 CL   UNL     1       9.033  21.356 -29.390  1.00  0.00    -0.084 Cl
HETATM   29  C   UNL     1      10.335  19.320 -30.583  1.00  0.00     0.033 A 
ENDBRANCH  21  23
TORSDOF 1
ENDMDL
MODEL 5
REMARK VINA RESULT:      -7.8      3.690      7.308
REMARK  1 active torsions:
REMARK  status: ('A' for Active; 'I' for Inactive)
REMARK    1  A    between atoms: C_21  and  C_22 
ROOT
HETATM    1  O   UNL     1      12.122  20.598 -31.436  1.00  0.00    -0.259 OA
HETATM    2  C   UNL     1      13.333  20.627 -31.611  1.00  0.00     0.299 C 
HETATM    3  O   UNL     1      14.080  21.772 -31.405  1.00  0.00    -0.274 OA
HETATM    4  C   UNL     1      15.145  21.909 -32.299  1.00  0.00     0.092 C 
HETATM    5  C   UNL     1      15.426  23.202 -32.723  1.00  0.00     0.038 C 
HETATM    6  C   UNL     1      16.236  23.372 -33.838  1.00  0.00     0.003 C 
HETATM    7  C   UNL     1      16.831  22.259 -34.440  1.00  0.00     0.001 C 
HETATM    8  C   UNL     1      16.656  20.973 -33.904  1.00  0.00     0.017 C 
HETATM    9  C   UNL     1      15.780  20.784 -32.832  1.00  0.00     0.028 C 
HETATM   10  C   UNL     1      15.383  19.470 -32.307  1.00  0.00     0.087 C 
HETATM   11  N   UNL     1      16.253  18.396 -32.299  1.00  0.00    -0.223 NA
HETATM   12  C   UNL     1      15.802  17.339 -31.692  1.00  0.00     0.175 A 
HETATM   13  S   UNL     1      16.838  15.923 -31.394  1.00  0.00    -0.050 SA
HETATM   14  C   UNL     1      15.485  15.088 -30.572  1.00  0.00     0.035 A 
HETATM   15  C   UNL     1      15.476  13.812 -30.023  1.00  0.00     0.021 A 
HETATM   16  C   UNL     1      14.282  13.327 -29.480  1.00  0.00     0.002 A 
HETATM   17  C   UNL     1      13.133  14.124 -29.474  1.00  0.00     0.002 A 
HETATM   18  C   UNL     1      13.164  15.416 -30.003  1.00  0.00     0.031 A 
HETATM   19  C   UNL     1      14.338  15.900 -30.568  1.00  0.00     0.055 A 
HETATM   20  N   UNL     1      14.542  17.142 -31.179  1.00  0.00    -0.311 N 
HETATM   21  C   UNL     1      13.497  18.127 -31.378  1.00  0.00     0.167 C 
HETATM   22  C   UNL     1      14.128  19.404 -31.827  1.00  0.00     0.075 C 
ENDROOT
BRANCH  21  23
HETATM   23  C   UNL     1      12.450  17.632 -32.379  1.00  0.00    -0.029 A 
HETATM   24  C   UNL     1      12.726  17.500 -33.753  1.00  0.00     0.010 A 
HETATM   25  C   UNL     1      11.736  17.073 -34.642  1.00  0.00     0.002 A 
HETATM   26  C   UNL     1      10.457  16.771 -34.170  1.00  0.00     0.024 A 
HETATM   27  C   UNL     1      10.176  16.888 -32.813  1.00  0.00     0.034 A 
HETATM   28 CL   UNL     1       8.607  16.504 -32.222  1.00  0.00    -0.084 Cl
HETATM   29  C   UNL     1      11.158  17.320 -31.924  1.00  0.00     0.033 A 
ENDBRANCH  21  23
TORSDOF 1
ENDMDL
MODEL 6
REMARK VINA RESULT:      -7.8      3.345      5.996
REMARK  1 active torsions:
REMARK  status: ('A' for Active; 'I' for Inactive)
REMARK    1  A    between atoms: C_21  and  C_22 
ROOT
HETATM    1  O   UNL     1      11.325  19.913 -28.942  1.00  0.00    -0.259 OA
HETATM    2  C   UNL     1      10.543  20.744 -29.384  1.00  0.00     0.299 C 
HETATM    3  O   UNL     1      10.477  22.033 -28.888  1.00  0.00    -0.274 OA
HETATM    4  C   UNL     1       9.184  22.562 -28.885  1.00  0.00     0.092 C 
HETATM    5  C   UNL     1       8.856  23.373 -27.805  1.00  0.00     0.038 C 
HETATM    6  C   UNL     1       7.517  23.658 -27.574  1.00  0.00     0.003 C 
HETATM    7  C   UNL     1       6.546  23.217 -28.479  1.00  0.00     0.001 C 
HETATM    8  C   UNL     1       6.914  22.527 -29.646  1.00  0.00     0.017 C 
HETATM    9  C   UNL     1       8.249  22.169 -29.846  1.00  0.00     0.028 C 
HETATM   10  C   UNL     1       8.719  21.297 -30.932  1.00  0.00     0.087 C 
HETATM   11  N   UNL     1       8.121  21.298 -32.178  1.00  0.00    -0.223 NA
HETATM   12  C   UNL     1       8.724  20.569 -33.068  1.00  0.00     0.175 A 
HETATM   13  S   UNL     1       8.234  20.593 -34.780  1.00  0.00    -0.050 SA
HETATM   14  C   UNL     1       9.524  19.418 -35.180  1.00  0.00     0.035 A 
HETATM   15  C   UNL     1       9.815  18.859 -36.418  1.00  0.00     0.021 A 
HETATM   16  C   UNL     1      10.834  17.905 -36.497  1.00  0.00     0.002 A 
HETATM   17  C   UNL     1      11.555  17.544 -35.354  1.00  0.00     0.002 A 
HETATM   18  C   UNL     1      11.271  18.136 -34.121  1.00  0.00     0.031 A 
HETATM   19  C   UNL     1      10.243  19.068 -34.025  1.00  0.00     0.055 A 
HETATM   20  N   UNL     1       9.792  19.726 -32.876  1.00  0.00    -0.311 N 
HETATM   21  C   UNL     1      10.311  19.477 -31.545  1.00  0.00     0.167 C 
HETATM   22  C   UNL     1       9.775  20.522 -30.624  1.00  0.00     0.075 C 
ENDROOT
BRANCH  21  23
HETATM   23  C   UNL     1       9.957  18.067 -31.066  1.00  0.00    -0.029 A 
HETATM   24  C   UNL     1       8.628  17.614 -30.977  1.00  0.00     0.010 A 
HETATM   25  C   UNL     1       8.341  16.329 -30.506  1.00  0.00     0.002 A 
HETATM   26  C   UNL     1       9.379  15.480 -30.119  1.00  0.00     0.024 A 
HETATM   27  C   UNL     1      10.697  15.914 -30.210  1.00  0.00     0.034 A 
HETATM   28 CL   UNL     1      11.982  14.868 -29.748  1.00  0.00    -0.084 Cl
HETATM   29  C   UNL     1      10.987  17.196 -30.674  1.00  0.00     0.033 A 
ENDBRANCH  21  23
TORSDOF 1
ENDMDL
MODEL 7
REMARK VINA RESULT:      -7.7     24.490     27.278
REMARK  1 active torsions:
REMARK  status: ('A' for Active; 'I' for Inactive)
REMARK    1  A    between atoms: C_21  and  C_22 
ROOT
HETATM    1  O   UNL     1      -0.323  -4.791 -28.376  1.00  0.00    -0.259 OA
HETATM    2  C   UNL     1      -0.793  -5.920 -28.446  1.00  0.00     0.299 C 
HETATM    3  O   UNL     1      -1.865  -6.222 -29.264  1.00  0.00    -0.274 OA
HETATM    4  C   UNL     1      -2.722  -7.184 -28.724  1.00  0.00     0.092 C 
HETATM    5  C   UNL     1      -4.078  -7.006 -28.973  1.00  0.00     0.038 C 
HETATM    6  C   UNL     1      -4.991  -7.720 -28.210  1.00  0.00     0.003 C 
HETATM    7  C   UNL     1      -4.534  -8.671 -27.291  1.00  0.00     0.001 C 
HETATM    8  C   UNL     1      -3.163  -8.944 -27.163  1.00  0.00     0.017 C 
HETATM    9  C   UNL     1      -2.235  -8.176 -27.869  1.00  0.00     0.028 C 
HETATM   10  C   UNL     1      -0.780  -8.251 -27.679  1.00  0.00     0.087 C 
HETATM   11  N   UNL     1      -0.148  -9.439 -27.362  1.00  0.00    -0.223 NA
HETATM   12  C   UNL     1       1.150  -9.374 -27.349  1.00  0.00     0.175 A 
HETATM   13  S   UNL     1       2.154 -10.832 -27.164  1.00  0.00    -0.050 SA
HETATM   14  C   UNL     1       3.641  -9.841 -27.281  1.00  0.00     0.035 A 
HETATM   15  C   UNL     1       4.960 -10.268 -27.196  1.00  0.00     0.021 A 
HETATM   16  C   UNL     1       5.976  -9.310 -27.251  1.00  0.00     0.002 A 
HETATM   17  C   UNL     1       5.663  -7.955 -27.409  1.00  0.00     0.002 A 
HETATM   18  C   UNL     1       4.333  -7.543 -27.521  1.00  0.00     0.031 A 
HETATM   19  C   UNL     1       3.313  -8.484 -27.445  1.00  0.00     0.055 A 
HETATM   20  N   UNL     1       1.934  -8.254 -27.493  1.00  0.00    -0.311 N 
HETATM   21  C   UNL     1       1.337  -6.935 -27.572  1.00  0.00     0.167 C 
HETATM   22  C   UNL     1      -0.121  -7.091 -27.852  1.00  0.00     0.075 C 
ENDROOT
BRANCH  21  23
HETATM   23  C   UNL     1       1.583  -6.136 -26.289  1.00  0.00    -0.029 A 
HETATM   24  C   UNL     1       1.121  -6.569 -25.033  1.00  0.00     0.010 A 
HETATM   25  C   UNL     1       1.338  -5.798 -23.888  1.00  0.00     0.002 A 
HETATM   26  C   UNL     1       2.022  -4.585 -23.982  1.00  0.00     0.024 A 
HETATM   27  C   UNL     1       2.491  -4.151 -25.218  1.00  0.00     0.034 A 
HETATM   28 CL   UNL     1       3.346  -2.664 -25.341  1.00  0.00    -0.084 Cl
HETATM   29  C   UNL     1       2.271  -4.914 -26.363  1.00  0.00     0.033 A 
ENDBRANCH  21  23
TORSDOF 1
ENDMDL
MODEL 8
REMARK VINA RESULT:      -7.6      3.046      4.637
REMARK  1 active torsions:
REMARK  status: ('A' for Active; 'I' for Inactive)
REMARK    1  A    between atoms: C_21  and  C_22 
ROOT
HETATM    1  O   UNL     1      12.185  19.618 -29.638  1.00  0.00    -0.259 OA
HETATM    2  C   UNL     1      11.701  18.578 -30.067  1.00  0.00     0.299 C 
HETATM    3  O   UNL     1      10.907  17.758 -29.286  1.00  0.00    -0.274 OA
HETATM    4  C   UNL     1      11.075  16.399 -29.560  1.00  0.00     0.092 C 
HETATM    5  C   UNL     1      11.015  15.541 -28.468  1.00  0.00     0.038 C 
HETATM    6  C   UNL     1      11.490  14.245 -28.617  1.00  0.00     0.003 C 
HETATM    7  C   UNL     1      11.915  13.801 -29.873  1.00  0.00     0.001 C 
HETATM    8  C   UNL     1      11.825  14.637 -30.998  1.00  0.00     0.017 C 
HETATM    9  C   UNL     1      11.424  15.966 -30.842  1.00  0.00     0.028 C 
HETATM   10  C   UNL     1      11.464  16.975 -31.910  1.00  0.00     0.087 C 
HETATM   11  N   UNL     1      11.232  16.646 -33.232  1.00  0.00    -0.223 NA
HETATM   12  C   UNL     1      11.179  17.661 -34.041  1.00  0.00     0.175 A 
HETATM   13  S   UNL     1      10.691  17.473 -35.743  1.00  0.00    -0.050 SA
HETATM   14  C   UNL     1      10.877  19.233 -36.007  1.00  0.00     0.035 A 
HETATM   15  C   UNL     1      10.690  19.944 -37.185  1.00  0.00     0.021 A 
HETATM   16  C   UNL     1      10.953  21.317 -37.185  1.00  0.00     0.002 A 
HETATM   17  C   UNL     1      11.375  21.957 -36.014  1.00  0.00     0.002 A 
HETATM   18  C   UNL     1      11.531  21.234 -34.829  1.00  0.00     0.031 A 
HETATM   19  C   UNL     1      11.296  19.864 -34.823  1.00  0.00     0.055 A 
HETATM   20  N   UNL     1      11.442  18.978 -33.749  1.00  0.00    -0.311 N 
HETATM   21  C   UNL     1      11.940  19.365 -32.444  1.00  0.00     0.167 C 
HETATM   22  C   UNL     1      11.725  18.229 -31.499  1.00  0.00     0.075 C 
ENDROOT
BRANCH  21  23
HETATM   23  C   UNL     1      13.415  19.771 -32.511  1.00  0.00    -0.029 A 
HETATM   24  C   UNL     1      14.430  18.864 -32.871  1.00  0.00     0.010 A 
HETATM   25  C   UNL     1      15.769  19.264 -32.892  1.00  0.00     0.002 A 
HETATM   26  C   UNL     1      16.112  20.574 -32.557  1.00  0.00     0.024 A 
HETATM   27  C   UNL     1      15.117  21.481 -32.208  1.00  0.00     0.034 A 
HETATM   28 CL   UNL     1      15.531  23.101 -31.806  1.00  0.00    -0.084 Cl
HETATM   29  C   UNL     1      13.781  21.086 -32.179  1.00  0.00     0.033 A 
ENDBRANCH  21  23
TORSDOF 1
ENDMDL
MODEL 9
REMARK VINA RESULT:      -7.5     26.049     28.955
REMARK  1 active torsions:
REMARK  status: ('A' for Active; 'I' for Inactive)
REMARK    1  A    between atoms: C_21  and  C_22 
ROOT
HETATM    1  O   UNL     1      26.529  -0.604 -22.761  1.00  0.00    -0.259 OA
HETATM    2  C   UNL     1      26.694  -0.489 -21.554  1.00  0.00     0.299 C 
HETATM    3  O   UNL     1      26.220   0.599 -20.845  1.00  0.00    -0.274 OA
HETATM    4  C   UNL     1      27.057   0.986 -19.795  1.00  0.00     0.092 C 
HETATM    5  C   UNL     1      27.157   2.353 -19.564  1.00  0.00     0.038 C 
HETATM    6  C   UNL     1      28.200   2.815 -18.772  1.00  0.00     0.003 C 
HETATM    7  C   UNL     1      29.053   1.902 -18.144  1.00  0.00     0.001 C 
HETATM    8  C   UNL     1      28.841   0.519 -18.269  1.00  0.00     0.017 C 
HETATM    9  C   UNL     1      27.845   0.047 -19.126  1.00  0.00     0.028 C 
HETATM   10  C   UNL     1      27.651  -1.369 -19.472  1.00  0.00     0.087 C 
HETATM   11  N   UNL     1      27.903  -2.381 -18.564  1.00  0.00    -0.223 NA
HETATM   12  C   UNL     1      27.568  -3.568 -18.971  1.00  0.00     0.175 A 
HETATM   13  S   UNL     1      27.620  -4.976 -17.884  1.00  0.00    -0.050 SA
HETATM   14  C   UNL     1      27.022  -6.033 -19.198  1.00  0.00     0.035 A 
HETATM   15  C   UNL     1      26.796  -7.403 -19.157  1.00  0.00     0.021 A 
HETATM   16  C   UNL     1      26.384  -8.048 -20.326  1.00  0.00     0.002 A 
HETATM   17  C   UNL     1      26.184  -7.318 -21.503  1.00  0.00     0.002 A 
HETATM   18  C   UNL     1      26.387  -5.936 -21.523  1.00  0.00     0.031 A 
HETATM   19  C   UNL     1      26.820  -5.288 -20.373  1.00  0.00     0.055 A 
HETATM   20  N   UNL     1      27.115  -3.929 -20.218  1.00  0.00    -0.311 N 
HETATM   21  C   UNL     1      27.069  -2.964 -21.299  1.00  0.00     0.167 C 
HETATM   22  C   UNL     1      27.199  -1.595 -20.719  1.00  0.00     0.075 C 
ENDROOT
BRANCH  21  23
HETATM   23  C   UNL     1      28.159  -3.242 -22.338  1.00  0.00    -0.029 A 
HETATM   24  C   UNL     1      29.513  -2.933 -22.110  1.00  0.00     0.010 A 
HETATM   25  C   UNL     1      30.475  -3.174 -23.095  1.00  0.00     0.002 A 
HETATM   26  C   UNL     1      30.099  -3.728 -24.319  1.00  0.00     0.024 A 
HETATM   27  C   UNL     1      28.765  -4.045 -24.552  1.00  0.00     0.034 A 
HETATM   28 CL   UNL     1      28.294  -4.739 -26.054  1.00  0.00    -0.084 Cl
HETATM   29  C   UNL     1      27.800  -3.801 -23.576  1.00  0.00     0.033 A 
ENDBRANCH  21  23
TORSDOF 1
ENDMDL
