MODEL 1
REMARK VINA RESULT:      -8.2      0.000      0.000
REMARK  1 active torsions:
REMARK  status: ('A' for Active; 'I' for Inactive)
REMARK    1  A    between atoms: C_2  and  C_4 
ROOT
HETATM    1  C   UNL     1       8.652  16.205 -33.994  1.00  0.00     0.012 C 
HETATM    2  C   UNL     1       8.814  16.751 -32.577  1.00  0.00     0.005 C 
HETATM    3  C   UNL     1       8.426  15.679 -31.550  1.00  0.00     0.012 C 
ENDROOT
BRANCH   2   4
HETATM    4  C   UNL     1      10.207  17.420 -32.340  1.00  0.00     0.137 C 
HETATM    5  C   UNL     1      11.259  16.554 -31.722  1.00  0.00     0.071 C 
HETATM    6  C   UNL     1      11.495  16.527 -30.396  1.00  0.00     0.087 C 
HETATM    7  C   UNL     1      12.315  16.066 -32.631  1.00  0.00     0.299 C 
HETATM    8  N   UNL     1      10.882  17.403 -29.511  1.00  0.00    -0.223 NA
HETATM    9  C   UNL     1      12.678  15.772 -30.008  1.00  0.00     0.028 C 
HETATM   10  C   UNL     1      10.305  18.392 -30.117  1.00  0.00     0.175 A 
HETATM   11  S   UNL     1       9.609  19.762 -29.186  1.00  0.00    -0.050 SA
HETATM   12  N   UNL     1      10.083  18.574 -31.461  1.00  0.00    -0.315 N 
HETATM   13  C   UNL     1       8.934  20.462 -30.693  1.00  0.00     0.035 A 
HETATM   14  C   UNL     1       8.111  21.570 -30.818  1.00  0.00     0.021 A 
HETATM   15  C   UNL     1       9.303  19.680 -31.793  1.00  0.00     0.054 A 
HETATM   16  C   UNL     1       7.600  21.869 -32.077  1.00  0.00     0.002 A 
HETATM   17  C   UNL     1       7.971  21.117 -33.193  1.00  0.00     0.002 A 
HETATM   18  C   UNL     1       8.843  20.039 -33.052  1.00  0.00     0.031 A 
HETATM   19  C   UNL     1      12.720  14.593 -29.263  1.00  0.00     0.017 C 
HETATM   20  C   UNL     1      13.823  16.115 -30.716  1.00  0.00     0.092 C 
HETATM   21  C   UNL     1      13.879  13.795 -29.295  1.00  0.00     0.001 C 
HETATM   22  C   UNL     1      15.052  14.275 -29.879  1.00  0.00     0.003 C 
HETATM   23  C   UNL     1      15.052  15.552 -30.413  1.00  0.00     0.038 C 
HETATM   24  O   UNL     1      13.606  16.275 -32.143  1.00  0.00    -0.274 OA
HETATM   25  O   UNL     1      12.075  15.713 -33.779  1.00  0.00    -0.259 OA
ENDBRANCH   2   4
TORSDOF 1
ENDMDL
MODEL 2
REMARK VINA RESULT:      -7.8     25.616     27.895
REMARK  1 active torsions:
REMARK  status: ('A' for Active; 'I' for Inactive)
REMARK    1  A    between atoms: C_2  and  C_4 
ROOT
HETATM    1  C   UNL     1      -0.707  -6.924 -22.988  1.00  0.00     0.012 C 
HETATM    2  C   UNL     1      -0.072  -7.232 -24.342  1.00  0.00     0.005 C 
HETATM    3  C   UNL     1       0.107  -8.746 -24.511  1.00  0.00     0.012 C 
ENDROOT
BRANCH   2   4
HETATM    4  C   UNL     1      -0.795  -6.514 -25.528  1.00  0.00     0.137 C 
HETATM    5  C   UNL     1      -1.683  -7.371 -26.374  1.00  0.00     0.071 C 
HETATM    6  C   UNL     1      -1.261  -7.957 -27.513  1.00  0.00     0.087 C 
HETATM    7  C   UNL     1      -3.135  -7.203 -26.171  1.00  0.00     0.299 C 
HETATM    8  N   UNL     1      -0.016  -7.699 -28.068  1.00  0.00    -0.223 NA
HETATM    9  C   UNL     1      -2.315  -8.589 -28.293  1.00  0.00     0.028 C 
HETATM   10  C   UNL     1       0.551  -6.658 -27.543  1.00  0.00     0.175 A 
HETATM   11  S   UNL     1       2.080  -6.003 -28.222  1.00  0.00    -0.050 SA
HETATM   12  N   UNL     1       0.172  -5.927 -26.443  1.00  0.00    -0.315 N 
HETATM   13  C   UNL     1       2.189  -4.823 -26.876  1.00  0.00     0.035 A 
HETATM   14  C   UNL     1       3.222  -3.940 -26.606  1.00  0.00     0.021 A 
HETATM   15  C   UNL     1       1.073  -4.944 -26.041  1.00  0.00     0.054 A 
HETATM   16  C   UNL     1       3.157  -3.194 -25.432  1.00  0.00     0.002 A 
HETATM   17  C   UNL     1       2.045  -3.281 -24.594  1.00  0.00     0.002 A 
HETATM   18  C   UNL     1       0.992  -4.137 -24.915  1.00  0.00     0.031 A 
HETATM   19  C   UNL     1      -2.470  -9.951 -28.555  1.00  0.00     0.017 C 
HETATM   20  C   UNL     1      -3.413  -7.770 -28.526  1.00  0.00     0.092 C 
HETATM   21  C   UNL     1      -3.718 -10.434 -28.990  1.00  0.00     0.001 C 
HETATM   22  C   UNL     1      -4.726  -9.548 -29.371  1.00  0.00     0.003 C 
HETATM   23  C   UNL     1      -4.467  -8.189 -29.322  1.00  0.00     0.038 C 
HETATM   24  O   UNL     1      -3.844  -7.019 -27.359  1.00  0.00    -0.274 OA
HETATM   25  O   UNL     1      -3.622  -7.032 -25.060  1.00  0.00    -0.259 OA
ENDBRANCH   2   4
TORSDOF 1
ENDMDL
MODEL 3
REMARK VINA RESULT:      -7.8      2.665      6.172
REMARK  1 active torsions:
REMARK  status: ('A' for Active; 'I' for Inactive)
REMARK    1  A    between atoms: C_2  and  C_4 
ROOT
HETATM    1  C   UNL     1      13.179  19.014 -30.534  1.00  0.00     0.012 C 
HETATM    2  C   UNL     1      11.719  18.680 -30.830  1.00  0.00     0.005 C 
HETATM    3  C   UNL     1      10.916  19.967 -31.054  1.00  0.00     0.012 C 
ENDROOT
BRANCH   2   4
HETATM    4  C   UNL     1      11.559  17.596 -31.946  1.00  0.00     0.137 C 
HETATM    5  C   UNL     1      11.151  18.096 -33.296  1.00  0.00     0.071 C 
HETATM    6  C   UNL     1       9.867  18.130 -33.704  1.00  0.00     0.087 C 
HETATM    7  C   UNL     1      12.212  18.138 -34.321  1.00  0.00     0.299 C 
HETATM    8  N   UNL     1       8.834  17.572 -32.964  1.00  0.00    -0.223 NA
HETATM    9  C   UNL     1       9.689  18.464 -35.110  1.00  0.00     0.028 C 
HETATM   10  C   UNL     1       9.267  16.798 -32.019  1.00  0.00     0.175 A 
HETATM   11  S   UNL     1       8.127  15.807 -31.046  1.00  0.00    -0.050 SA
HETATM   12  N   UNL     1      10.553  16.613 -31.571  1.00  0.00    -0.315 N 
HETATM   13  C   UNL     1       9.472  15.278 -29.983  1.00  0.00     0.035 A 
HETATM   14  C   UNL     1       9.390  14.507 -28.835  1.00  0.00     0.021 A 
HETATM   15  C   UNL     1      10.681  15.816 -30.436  1.00  0.00     0.054 A 
HETATM   16  C   UNL     1      10.549  14.315 -28.090  1.00  0.00     0.002 A 
HETATM   17  C   UNL     1      11.772  14.823 -28.532  1.00  0.00     0.002 A 
HETATM   18  C   UNL     1      11.839  15.550 -29.719  1.00  0.00     0.031 A 
HETATM   19  C   UNL     1       9.083  19.607 -35.634  1.00  0.00     0.017 C 
HETATM   20  C   UNL     1      10.471  17.709 -35.974  1.00  0.00     0.092 C 
HETATM   21  C   UNL     1       9.322  19.963 -36.974  1.00  0.00     0.001 C 
HETATM   22  C   UNL     1       9.970  19.079 -37.837  1.00  0.00     0.003 C 
HETATM   23  C   UNL     1      10.361  17.844 -37.348  1.00  0.00     0.038 C 
HETATM   24  O   UNL     1      11.843  17.538 -35.526  1.00  0.00    -0.274 OA
HETATM   25  O   UNL     1      13.360  18.475 -34.058  1.00  0.00    -0.259 OA
ENDBRANCH   2   4
TORSDOF 1
ENDMDL
MODEL 4
REMARK VINA RESULT:      -7.6      2.594      3.824
REMARK  1 active torsions:
REMARK  status: ('A' for Active; 'I' for Inactive)
REMARK    1  A    between atoms: C_2  and  C_4 
ROOT
HETATM    1  C   UNL     1      12.782  21.341 -31.295  1.00  0.00     0.012 C 
HETATM    2  C   UNL     1      12.959  20.102 -32.169  1.00  0.00     0.005 C 
HETATM    3  C   UNL     1      14.447  19.858 -32.447  1.00  0.00     0.012 C 
ENDROOT
BRANCH   2   4
HETATM    4  C   UNL     1      12.174  18.862 -31.630  1.00  0.00     0.137 C 
HETATM    5  C   UNL     1      13.004  17.709 -31.160  1.00  0.00     0.071 C 
HETATM    6  C   UNL     1      13.315  16.664 -31.952  1.00  0.00     0.087 C 
HETATM    7  C   UNL     1      13.103  17.533 -29.698  1.00  0.00     0.299 C 
HETATM    8  N   UNL     1      12.774  16.501 -33.219  1.00  0.00    -0.223 NA
HETATM    9  C   UNL     1      13.964  15.557 -31.264  1.00  0.00     0.028 C 
HETATM   10  C   UNL     1      11.761  17.282 -33.427  1.00  0.00     0.175 A 
HETATM   11  S   UNL     1      10.768  17.126 -34.916  1.00  0.00    -0.050 SA
HETATM   12  N   UNL     1      11.295  18.320 -32.656  1.00  0.00    -0.315 N 
HETATM   13  C   UNL     1       9.830  18.586 -34.461  1.00  0.00     0.035 A 
HETATM   14  C   UNL     1       8.854  19.230 -35.203  1.00  0.00     0.021 A 
HETATM   15  C   UNL     1      10.265  19.068 -33.222  1.00  0.00     0.054 A 
HETATM   16  C   UNL     1       8.337  20.425 -34.711  1.00  0.00     0.002 A 
HETATM   17  C   UNL     1       8.739  20.915 -33.467  1.00  0.00     0.002 A 
HETATM   18  C   UNL     1       9.683  20.220 -32.713  1.00  0.00     0.031 A 
HETATM   19  C   UNL     1      15.269  15.099 -31.448  1.00  0.00     0.017 C 
HETATM   20  C   UNL     1      13.301  15.139 -30.117  1.00  0.00     0.092 C 
HETATM   21  C   UNL     1      15.862  14.287 -30.462  1.00  0.00     0.001 C 
HETATM   22  C   UNL     1      15.094  13.760 -29.423  1.00  0.00     0.003 C 
HETATM   23  C   UNL     1      13.740  14.043 -29.391  1.00  0.00     0.038 C 
HETATM   24  O   UNL     1      12.835  16.229 -29.277  1.00  0.00    -0.274 OA
HETATM   25  O   UNL     1      13.201  18.483 -28.932  1.00  0.00    -0.259 OA
ENDBRANCH   2   4
TORSDOF 1
ENDMDL
MODEL 5
REMARK VINA RESULT:      -7.3      3.346      4.551
REMARK  1 active torsions:
REMARK  status: ('A' for Active; 'I' for Inactive)
REMARK    1  A    between atoms: C_2  and  C_4 
ROOT
HETATM    1  C   UNL     1      14.820  20.663 -32.174  1.00  0.00     0.012 C 
HETATM    2  C   UNL     1      14.304  19.280 -32.565  1.00  0.00     0.005 C 
HETATM    3  C   UNL     1      15.300  18.200 -32.123  1.00  0.00     0.012 C 
ENDROOT
BRANCH   2   4
HETATM    4  C   UNL     1      12.824  19.037 -32.123  1.00  0.00     0.137 C 
HETATM    5  C   UNL     1      12.580  17.828 -31.276  1.00  0.00     0.071 C 
HETATM    6  C   UNL     1      12.198  16.642 -31.791  1.00  0.00     0.087 C 
HETATM    7  C   UNL     1      12.340  18.077 -29.842  1.00  0.00     0.299 C 
HETATM    8  N   UNL     1      11.864  16.482 -33.128  1.00  0.00    -0.223 NA
HETATM    9  C   UNL     1      11.824  15.645 -30.798  1.00  0.00     0.028 C 
HETATM   10  C   UNL     1      11.690  17.616 -33.732  1.00  0.00     0.175 A 
HETATM   11  S   UNL     1      11.063  17.675 -35.414  1.00  0.00    -0.050 SA
HETATM   12  N   UNL     1      11.957  18.886 -33.282  1.00  0.00    -0.315 N 
HETATM   13  C   UNL     1      11.317  19.451 -35.461  1.00  0.00     0.035 A 
HETATM   14  C   UNL     1      11.147  20.302 -36.540  1.00  0.00     0.021 A 
HETATM   15  C   UNL     1      11.795  19.899 -34.225  1.00  0.00     0.054 A 
HETATM   16  C   UNL     1      11.520  21.635 -36.390  1.00  0.00     0.002 A 
HETATM   17  C   UNL     1      11.980  22.110 -35.161  1.00  0.00     0.002 A 
HETATM   18  C   UNL     1      12.091  21.247 -34.073  1.00  0.00     0.031 A 
HETATM   19  C   UNL     1      12.480  14.445 -30.520  1.00  0.00     0.017 C 
HETATM   20  C   UNL     1      10.911  16.101 -29.856  1.00  0.00     0.092 C 
HETATM   21  C   UNL     1      12.228  13.785 -29.303  1.00  0.00     0.001 C 
HETATM   22  C   UNL     1      11.178  14.195 -28.480  1.00  0.00     0.003 C 
HETATM   23  C   UNL     1      10.388  15.254 -28.892  1.00  0.00     0.038 C 
HETATM   24  O   UNL     1      11.205  17.430 -29.349  1.00  0.00    -0.274 OA
HETATM   25  O   UNL     1      12.955  18.932 -29.216  1.00  0.00    -0.259 OA
ENDBRANCH   2   4
TORSDOF 1
ENDMDL
MODEL 6
REMARK VINA RESULT:      -7.3      7.106     10.533
REMARK  1 active torsions:
REMARK  status: ('A' for Active; 'I' for Inactive)
REMARK    1  A    between atoms: C_2  and  C_4 
ROOT
HETATM    1  C   UNL     1      19.821  16.889 -28.464  1.00  0.00     0.012 C 
HETATM    2  C   UNL     1      20.435  15.570 -28.927  1.00  0.00     0.005 C 
HETATM    3  C   UNL     1      19.821  14.399 -28.150  1.00  0.00     0.012 C 
ENDROOT
BRANCH   2   4
HETATM    4  C   UNL     1      20.426  15.409 -30.483  1.00  0.00     0.137 C 
HETATM    5  C   UNL     1      21.398  16.259 -31.239  1.00  0.00     0.071 C 
HETATM    6  C   UNL     1      21.066  17.457 -31.762  1.00  0.00     0.087 C 
HETATM    7  C   UNL     1      22.588  15.568 -31.772  1.00  0.00     0.299 C 
HETATM    8  N   UNL     1      19.764  17.934 -31.767  1.00  0.00    -0.223 NA
HETATM    9  C   UNL     1      22.085  18.042 -32.622  1.00  0.00     0.028 C 
HETATM   10  C   UNL     1      18.899  17.011 -31.483  1.00  0.00     0.175 A 
HETATM   11  S   UNL     1      17.136  17.329 -31.614  1.00  0.00    -0.050 SA
HETATM   12  N   UNL     1      19.115  15.733 -31.028  1.00  0.00    -0.315 N 
HETATM   13  C   UNL     1      16.778  15.717 -30.913  1.00  0.00     0.035 A 
HETATM   14  C   UNL     1      15.540  15.198 -30.574  1.00  0.00     0.021 A 
HETATM   15  C   UNL     1      17.969  15.023 -30.675  1.00  0.00     0.054 A 
HETATM   16  C   UNL     1      15.500  13.966 -29.926  1.00  0.00     0.002 A 
HETATM   17  C   UNL     1      16.672  13.245 -29.697  1.00  0.00     0.002 A 
HETATM   18  C   UNL     1      17.903  13.763 -30.096  1.00  0.00     0.031 A 
HETATM   19  C   UNL     1      22.817  19.207 -32.390  1.00  0.00     0.017 C 
HETATM   20  C   UNL     1      22.560  17.180 -33.602  1.00  0.00     0.092 C 
HETATM   21  C   UNL     1      24.005  19.432 -33.109  1.00  0.00     0.001 C 
HETATM   22  C   UNL     1      24.338  18.623 -34.196  1.00  0.00     0.003 C 
HETATM   23  C   UNL     1      23.471  17.606 -34.555  1.00  0.00     0.038 C 
HETATM   24  O   UNL     1      22.825  15.835 -33.122  1.00  0.00    -0.274 OA
HETATM   25  O   UNL     1      23.169  14.692 -31.144  1.00  0.00    -0.259 OA
ENDBRANCH   2   4
TORSDOF 1
ENDMDL
MODEL 7
REMARK VINA RESULT:      -7.1      2.621      3.851
REMARK  1 active torsions:
REMARK  status: ('A' for Active; 'I' for Inactive)
REMARK    1  A    between atoms: C_2  and  C_4 
ROOT
HETATM    1  C   UNL     1      11.011  21.434 -31.349  1.00  0.00     0.012 C 
HETATM    2  C   UNL     1      11.447  20.374 -32.358  1.00  0.00     0.005 C 
HETATM    3  C   UNL     1      12.977  20.277 -32.394  1.00  0.00     0.012 C 
ENDROOT
BRANCH   2   4
HETATM    4  C   UNL     1      10.702  19.012 -32.167  1.00  0.00     0.137 C 
HETATM    5  C   UNL     1      11.509  17.895 -31.585  1.00  0.00     0.071 C 
HETATM    6  C   UNL     1      12.145  16.982 -32.346  1.00  0.00     0.087 C 
HETATM    7  C   UNL     1      11.234  17.561 -30.174  1.00  0.00     0.299 C 
HETATM    8  N   UNL     1      11.987  16.917 -33.722  1.00  0.00    -0.223 NA
HETATM    9  C   UNL     1      12.714  15.867 -31.601  1.00  0.00     0.028 C 
HETATM   10  C   UNL     1      10.980  17.620 -34.136  1.00  0.00     0.175 A 
HETATM   11  S   UNL     1      10.449  17.546 -35.851  1.00  0.00    -0.050 SA
HETATM   12  N   UNL     1      10.203  18.514 -33.440  1.00  0.00    -0.315 N 
HETATM   13  C   UNL     1       9.254  18.850 -35.552  1.00  0.00     0.035 A 
HETATM   14  C   UNL     1       8.442  19.483 -36.479  1.00  0.00     0.021 A 
HETATM   15  C   UNL     1       9.279  19.224 -34.204  1.00  0.00     0.054 A 
HETATM   16  C   UNL     1       7.672  20.560 -36.050  1.00  0.00     0.002 A 
HETATM   17  C   UNL     1       7.663  20.937 -34.706  1.00  0.00     0.002 A 
HETATM   18  C   UNL     1       8.447  20.251 -33.781  1.00  0.00     0.031 A 
HETATM   19  C   UNL     1      14.066  15.556 -31.452  1.00  0.00     0.017 C 
HETATM   20  C   UNL     1      11.824  15.260 -30.725  1.00  0.00     0.092 C 
HETATM   21  C   UNL     1      14.467  14.694 -30.414  1.00  0.00     0.001 C 
HETATM   22  C   UNL     1      13.519  13.981 -29.680  1.00  0.00     0.003 C 
HETATM   23  C   UNL     1      12.181  14.132 -30.003  1.00  0.00     0.038 C 
HETATM   24  O   UNL     1      11.022  16.198 -29.958  1.00  0.00    -0.274 OA
HETATM   25  O   UNL     1      11.007  18.421 -29.332  1.00  0.00    -0.259 OA
ENDBRANCH   2   4
TORSDOF 1
ENDMDL
MODEL 8
REMARK VINA RESULT:      -7.1      1.717      1.810
REMARK  1 active torsions:
REMARK  status: ('A' for Active; 'I' for Inactive)
REMARK    1  A    between atoms: C_2  and  C_4 
ROOT
HETATM    1  C   UNL     1       9.242  18.018 -34.587  1.00  0.00     0.012 C 
HETATM    2  C   UNL     1       9.500  18.247 -33.099  1.00  0.00     0.005 C 
HETATM    3  C   UNL     1       8.626  17.307 -32.260  1.00  0.00     0.012 C 
ENDROOT
BRANCH   2   4
HETATM    4  C   UNL     1      11.021  18.235 -32.739  1.00  0.00     0.137 C 
HETATM    5  C   UNL     1      11.511  17.035 -31.990  1.00  0.00     0.071 C 
HETATM    6  C   UNL     1      11.603  17.003 -30.646  1.00  0.00     0.087 C 
HETATM    7  C   UNL     1      12.299  16.060 -32.769  1.00  0.00     0.299 C 
HETATM    8  N   UNL     1      11.388  18.122 -29.855  1.00  0.00    -0.223 NA
HETATM    9  C   UNL     1      12.279  15.827 -30.115  1.00  0.00     0.028 C 
HETATM   10  C   UNL     1      11.373  19.219 -30.547  1.00  0.00     0.175 A 
HETATM   11  S   UNL     1      11.305  20.819 -29.734  1.00  0.00    -0.050 SA
HETATM   12  N   UNL     1      11.366  19.381 -31.911  1.00  0.00    -0.315 N 
HETATM   13  C   UNL     1      11.144  21.635 -31.323  1.00  0.00     0.035 A 
HETATM   14  C   UNL     1      10.928  22.982 -31.565  1.00  0.00     0.021 A 
HETATM   15  C   UNL     1      11.203  20.692 -32.355  1.00  0.00     0.054 A 
HETATM   16  C   UNL     1      10.711  23.386 -32.879  1.00  0.00     0.002 A 
HETATM   17  C   UNL     1      10.786  22.468 -33.927  1.00  0.00     0.002 A 
HETATM   18  C   UNL     1      11.059  21.127 -33.665  1.00  0.00     0.031 A 
HETATM   19  C   UNL     1      11.721  14.814 -29.336  1.00  0.00     0.017 C 
HETATM   20  C   UNL     1      13.507  15.566 -30.709  1.00  0.00     0.092 C 
HETATM   21  C   UNL     1      12.389  13.580 -29.224  1.00  0.00     0.001 C 
HETATM   22  C   UNL     1      13.694  13.436 -29.696  1.00  0.00     0.003 C 
HETATM   23  C   UNL     1      14.317  14.534 -30.264  1.00  0.00     0.038 C 
HETATM   24  O   UNL     1      13.500  15.702 -32.156  1.00  0.00    -0.274 OA
HETATM   25  O   UNL     1      12.017  15.769 -33.925  1.00  0.00    -0.259 OA
ENDBRANCH   2   4
TORSDOF 1
ENDMDL
MODEL 9
REMARK VINA RESULT:      -6.9     25.913     28.748
REMARK  1 active torsions:
REMARK  status: ('A' for Active; 'I' for Inactive)
REMARK    1  A    between atoms: C_2  and  C_4 
ROOT
HETATM    1  C   UNL     1      30.605  -2.560 -18.086  1.00  0.00     0.012 C 
HETATM    2  C   UNL     1      29.770  -2.246 -19.325  1.00  0.00     0.005 C 
HETATM    3  C   UNL     1      30.281  -3.053 -20.525  1.00  0.00     0.012 C 
ENDROOT
BRANCH   2   4
HETATM    4  C   UNL     1      28.232  -2.351 -19.063  1.00  0.00     0.137 C 
HETATM    5  C   UNL     1      27.572  -3.618 -19.510  1.00  0.00     0.071 C 
HETATM    6  C   UNL     1      26.970  -3.742 -20.709  1.00  0.00     0.087 C 
HETATM    7  C   UNL     1      27.215  -4.575 -18.444  1.00  0.00     0.299 C 
HETATM    8  N   UNL     1      26.787  -2.668 -21.567  1.00  0.00    -0.223 NA
HETATM    9  C   UNL     1      26.222  -4.979 -20.883  1.00  0.00     0.028 C 
HETATM   10  C   UNL     1      26.994  -1.529 -20.983  1.00  0.00     0.175 A 
HETATM   11  S   UNL     1      26.635   0.016 -21.825  1.00  0.00    -0.050 SA
HETATM   12  N   UNL     1      27.518  -1.278 -19.738  1.00  0.00    -0.315 N 
HETATM   13  C   UNL     1      27.343   0.941 -20.460  1.00  0.00     0.035 A 
HETATM   14  C   UNL     1      27.545   2.309 -20.379  1.00  0.00     0.021 A 
HETATM   15  C   UNL     1      27.751   0.065 -19.448  1.00  0.00     0.054 A 
HETATM   16  C   UNL     1      28.226   2.807 -19.272  1.00  0.00     0.002 A 
HETATM   17  C   UNL     1      28.624   1.957 -18.240  1.00  0.00     0.002 A 
HETATM   18  C   UNL     1      28.362   0.590 -18.318  1.00  0.00     0.031 A 
HETATM   19  C   UNL     1      26.502  -6.015 -21.775  1.00  0.00     0.017 C 
HETATM   20  C   UNL     1      25.340  -5.257 -19.846  1.00  0.00     0.092 C 
HETATM   21  C   UNL     1      25.927  -7.282 -21.565  1.00  0.00     0.001 C 
HETATM   22  C   UNL     1      24.919  -7.454 -20.616  1.00  0.00     0.003 C 
HETATM   23  C   UNL     1      24.492  -6.351 -19.897  1.00  0.00     0.038 C 
HETATM   24  O   UNL     1      25.897  -5.027 -18.524  1.00  0.00    -0.274 OA
HETATM   25  O   UNL     1      27.941  -4.777 -17.479  1.00  0.00    -0.259 OA
ENDBRANCH   2   4
TORSDOF 1
ENDMDL
