MODEL 1
REMARK VINA RESULT:      -7.4      0.000      0.000
REMARK  2 active torsions:
REMARK  status: ('A' for Active; 'I' for Inactive)
REMARK    1  A    between atoms: C_2  and  C_3 
REMARK    2  A    between atoms: C_3  and  C_4 
ROOT
HETATM    1  C   UNL     1      15.083  20.594 -32.367  1.00  0.00     0.005 C 
HETATM    2  C   UNL     1      15.278  19.098 -32.174  1.00  0.00    -0.002 C 
ENDROOT
BRANCH   2   3
HETATM    3  C   UNL     1      14.022  18.464 -31.583  1.00  0.00     0.030 C 
BRANCH   3   4
HETATM    4  C   UNL     1      13.362  17.398 -32.485  1.00  0.00     0.134 C 
HETATM    5  C   UNL     1      12.132  17.890 -33.165  1.00  0.00     0.070 C 
HETATM    6  C   UNL     1      10.903  17.768 -32.637  1.00  0.00     0.086 C 
HETATM    7  C   UNL     1      12.258  18.201 -34.603  1.00  0.00     0.298 C 
HETATM    8  N   UNL     1      10.634  16.971 -31.534  1.00  0.00    -0.223 NA
HETATM    9  C   UNL     1       9.823  18.237 -33.506  1.00  0.00     0.024 C 
HETATM   10  C   UNL     1      11.636  16.218 -31.189  1.00  0.00     0.175 A 
HETATM   11  S   UNL     1      11.451  14.906 -30.009  1.00  0.00    -0.050 SA
HETATM   12  N   UNL     1      12.940  16.276 -31.665  1.00  0.00    -0.315 N 
HETATM   13  C   UNL     1      13.206  14.528 -30.138  1.00  0.00     0.035 A 
HETATM   14  C   UNL     1      13.908  13.566 -29.434  1.00  0.00     0.021 A 
HETATM   15  C   UNL     1      13.825  15.382 -31.066  1.00  0.00     0.054 A 
HETATM   16  C   UNL     1      15.298  13.501 -29.605  1.00  0.00     0.002 A 
HETATM   17  C   UNL     1      15.935  14.377 -30.488  1.00  0.00     0.002 A 
HETATM   18  C   UNL     1      15.191  15.295 -31.227  1.00  0.00     0.031 A 
HETATM   19  C   UNL     1       9.075  19.400 -33.318  1.00  0.00     0.016 C 
HETATM   20  C   UNL     1       9.861  17.708 -34.793  1.00  0.00     0.078 C 
HETATM   21  C   UNL     1       8.448  19.993 -34.430  1.00  0.00    -0.002 C 
HETATM   22  C   UNL     1       8.403  19.331 -35.659  1.00  0.00    -0.014 C 
HETATM   23  C   UNL     1       8.901  18.039 -35.737  1.00  0.00     0.081 C 
HETATM   24  O   UNL     1      11.204  17.714 -35.372  1.00  0.00    -0.278 OA
HETATM   25  O   UNL     1      13.283  18.666 -35.085  1.00  0.00    -0.259 OA
ENDBRANCH   3   4
ENDBRANCH   2   3
TORSDOF 2
ENDMDL
MODEL 2
REMARK VINA RESULT:      -7.3      2.450      6.834
REMARK  2 active torsions:
REMARK  status: ('A' for Active; 'I' for Inactive)
REMARK    1  A    between atoms: C_2  and  C_3 
REMARK    2  A    between atoms: C_3  and  C_4 
ROOT
HETATM    1  C   UNL     1       9.293  14.378 -33.570  1.00  0.00     0.005 C 
HETATM    2  C   UNL     1       9.174  15.113 -32.243  1.00  0.00    -0.002 C 
ENDROOT
BRANCH   2   3
HETATM    3  C   UNL     1       8.991  16.611 -32.473  1.00  0.00     0.030 C 
BRANCH   3   4
HETATM    4  C   UNL     1      10.275  17.446 -32.274  1.00  0.00     0.134 C 
HETATM    5  C   UNL     1      11.387  16.669 -31.658  1.00  0.00     0.070 C 
HETATM    6  C   UNL     1      11.588  16.601 -30.331  1.00  0.00     0.086 C 
HETATM    7  C   UNL     1      12.480  16.258 -32.562  1.00  0.00     0.298 C 
HETATM    8  N   UNL     1      10.935  17.428 -29.429  1.00  0.00    -0.223 NA
HETATM    9  C   UNL     1      12.785  15.858 -29.939  1.00  0.00     0.024 C 
HETATM   10  C   UNL     1      10.268  18.386 -30.001  1.00  0.00     0.175 A 
HETATM   11  S   UNL     1       9.600  19.740 -29.069  1.00  0.00    -0.050 SA
HETATM   12  N   UNL     1       9.997  18.535 -31.356  1.00  0.00    -0.315 N 
HETATM   13  C   UNL     1       8.884  20.432 -30.568  1.00  0.00     0.035 A 
HETATM   14  C   UNL     1       8.104  21.570 -30.674  1.00  0.00     0.021 A 
HETATM   15  C   UNL     1       9.201  19.632 -31.679  1.00  0.00     0.054 A 
HETATM   16  C   UNL     1       7.554  21.883 -31.925  1.00  0.00     0.002 A 
HETATM   17  C   UNL     1       7.819  21.069 -33.029  1.00  0.00     0.002 A 
HETATM   18  C   UNL     1       8.658  19.964 -32.901  1.00  0.00     0.031 A 
HETATM   19  C   UNL     1      12.801  14.595 -29.345  1.00  0.00     0.016 C 
HETATM   20  C   UNL     1      13.945  16.266 -30.593  1.00  0.00     0.078 C 
HETATM   21  C   UNL     1      13.952  13.795 -29.477  1.00  0.00    -0.002 C 
HETATM   22  C   UNL     1      15.128  14.323 -30.014  1.00  0.00    -0.014 C 
HETATM   23  C   UNL     1      15.170  15.674 -30.325  1.00  0.00     0.081 C 
HETATM   24  O   UNL     1      13.749  16.464 -32.029  1.00  0.00    -0.278 OA
HETATM   25  O   UNL     1      12.284  15.956 -33.732  1.00  0.00    -0.259 OA
ENDBRANCH   3   4
ENDBRANCH   2   3
TORSDOF 2
ENDMDL
MODEL 3
REMARK VINA RESULT:      -7.3     26.029     28.407
REMARK  2 active torsions:
REMARK  status: ('A' for Active; 'I' for Inactive)
REMARK    1  A    between atoms: C_2  and  C_3 
REMARK    2  A    between atoms: C_3  and  C_4 
ROOT
HETATM    1  C   UNL     1      -1.311  -8.140 -22.281  1.00  0.00     0.005 C 
HETATM    2  C   UNL     1      -0.657  -6.980 -23.016  1.00  0.00    -0.002 C 
ENDROOT
BRANCH   2   3
HETATM    3  C   UNL     1      -0.245  -7.400 -24.424  1.00  0.00     0.030 C 
BRANCH   3   4
HETATM    4  C   UNL     1      -0.869  -6.548 -25.551  1.00  0.00     0.134 C 
HETATM    5  C   UNL     1      -1.751  -7.335 -26.458  1.00  0.00     0.070 C 
HETATM    6  C   UNL     1      -1.306  -7.938 -27.573  1.00  0.00     0.086 C 
HETATM    7  C   UNL     1      -3.205  -7.142 -26.288  1.00  0.00     0.298 C 
HETATM    8  N   UNL     1      -0.051  -7.692 -28.111  1.00  0.00    -0.223 NA
HETATM    9  C   UNL     1      -2.350  -8.585 -28.367  1.00  0.00     0.024 C 
HETATM   10  C   UNL     1       0.563  -6.695 -27.546  1.00  0.00     0.175 A 
HETATM   11  S   UNL     1       2.039  -5.996 -28.240  1.00  0.00    -0.050 SA
HETATM   12  N   UNL     1       0.191  -6.019 -26.390  1.00  0.00    -0.315 N 
HETATM   13  C   UNL     1       2.153  -4.843 -26.864  1.00  0.00     0.035 A 
HETATM   14  C   UNL     1       3.145  -3.905 -26.639  1.00  0.00     0.021 A 
HETATM   15  C   UNL     1       1.077  -5.026 -25.979  1.00  0.00     0.054 A 
HETATM   16  C   UNL     1       3.105  -3.170 -25.445  1.00  0.00     0.002 A 
HETATM   17  C   UNL     1       2.069  -3.376 -24.532  1.00  0.00     0.002 A 
HETATM   18  C   UNL     1       1.052  -4.286 -24.816  1.00  0.00     0.031 A 
HETATM   19  C   UNL     1      -2.545  -9.961 -28.488  1.00  0.00     0.016 C 
HETATM   20  C   UNL     1      -3.437  -7.763 -28.652  1.00  0.00     0.078 C 
HETATM   21  C   UNL     1      -3.821 -10.440 -28.838  1.00  0.00    -0.002 C 
HETATM   22  C   UNL     1      -4.823  -9.559 -29.254  1.00  0.00    -0.014 C 
HETATM   23  C   UNL     1      -4.506  -8.218 -29.408  1.00  0.00     0.081 C 
HETATM   24  O   UNL     1      -3.890  -6.996 -27.492  1.00  0.00    -0.278 OA
HETATM   25  O   UNL     1      -3.716  -6.936 -25.195  1.00  0.00    -0.259 OA
ENDBRANCH   3   4
ENDBRANCH   2   3
TORSDOF 2
ENDMDL
MODEL 4
REMARK VINA RESULT:      -7.2      2.873      3.500
REMARK  2 active torsions:
REMARK  status: ('A' for Active; 'I' for Inactive)
REMARK    1  A    between atoms: C_2  and  C_3 
REMARK    2  A    between atoms: C_3  and  C_4 
ROOT
HETATM    1  C   UNL     1      10.744  21.235 -30.285  1.00  0.00     0.005 C 
HETATM    2  C   UNL     1      11.250  19.921 -29.709  1.00  0.00    -0.002 C 
ENDROOT
BRANCH   2   3
HETATM    3  C   UNL     1      10.234  18.806 -29.942  1.00  0.00     0.030 C 
BRANCH   3   4
HETATM    4  C   UNL     1      10.733  17.673 -30.865  1.00  0.00     0.134 C 
HETATM    5  C   UNL     1      10.559  17.981 -32.312  1.00  0.00     0.070 C 
HETATM    6  C   UNL     1       9.457  17.651 -33.006  1.00  0.00     0.086 C 
HETATM    7  C   UNL     1      11.781  18.348 -33.056  1.00  0.00     0.298 C 
HETATM    8  N   UNL     1       8.486  16.792 -32.511  1.00  0.00    -0.223 NA
HETATM    9  C   UNL     1       9.525  17.965 -34.432  1.00  0.00     0.024 C 
HETATM   10  C   UNL     1       8.840  16.199 -31.409  1.00  0.00     0.175 A 
HETATM   11  S   UNL     1       7.911  14.843 -30.742  1.00  0.00    -0.050 SA
HETATM   12  N   UNL     1       9.948  16.477 -30.618  1.00  0.00    -0.315 N 
HETATM   13  C   UNL     1       9.030  14.753 -29.336  1.00  0.00     0.035 A 
HETATM   14  C   UNL     1       8.944  13.897 -28.252  1.00  0.00     0.021 A 
HETATM   15  C   UNL     1      10.043  15.720 -29.452  1.00  0.00     0.054 A 
HETATM   16  C   UNL     1       9.862  14.059 -27.204  1.00  0.00     0.002 A 
HETATM   17  C   UNL     1      10.845  15.048 -27.283  1.00  0.00     0.002 A 
HETATM   18  C   UNL     1      10.941  15.855 -28.415  1.00  0.00     0.031 A 
HETATM   19  C   UNL     1       8.826  18.988 -35.074  1.00  0.00     0.016 C 
HETATM   20  C   UNL     1      10.668  17.484 -35.065  1.00  0.00     0.078 C 
HETATM   21  C   UNL     1       9.331  19.504 -36.282  1.00  0.00    -0.002 C 
HETATM   22  C   UNL     1      10.394  18.877 -36.935  1.00  0.00    -0.014 C 
HETATM   23  C   UNL     1      10.879  17.683 -36.421  1.00  0.00     0.081 C 
HETATM   24  O   UNL     1      11.888  17.719 -34.294  1.00  0.00    -0.278 OA
HETATM   25  O   UNL     1      12.694  18.983 -32.544  1.00  0.00    -0.259 OA
ENDBRANCH   3   4
ENDBRANCH   2   3
TORSDOF 2
ENDMDL
MODEL 5
REMARK VINA RESULT:      -7.1      2.479      6.597
REMARK  2 active torsions:
REMARK  status: ('A' for Active; 'I' for Inactive)
REMARK    1  A    between atoms: C_2  and  C_3 
REMARK    2  A    between atoms: C_3  and  C_4 
ROOT
HETATM    1  C   UNL     1      14.028  20.079 -31.868  1.00  0.00     0.005 C 
HETATM    2  C   UNL     1      13.001  19.740 -30.798  1.00  0.00    -0.002 C 
ENDROOT
BRANCH   2   3
HETATM    3  C   UNL     1      11.585  19.896 -31.344  1.00  0.00     0.030 C 
BRANCH   3   4
HETATM    4  C   UNL     1      10.825  18.565 -31.531  1.00  0.00     0.134 C 
HETATM    5  C   UNL     1      11.614  17.377 -31.100  1.00  0.00     0.070 C 
HETATM    6  C   UNL     1      12.415  16.688 -31.929  1.00  0.00     0.086 C 
HETATM    7  C   UNL     1      11.221  16.759 -29.817  1.00  0.00     0.298 C 
HETATM    8  N   UNL     1      12.403  16.864 -33.306  1.00  0.00    -0.223 NA
HETATM    9  C   UNL     1      13.031  15.504 -31.329  1.00  0.00     0.024 C 
HETATM   10  C   UNL     1      11.421  17.609 -33.718  1.00  0.00     0.175 A 
HETATM   11  S   UNL     1      11.012  17.741 -35.440  1.00  0.00    -0.050 SA
HETATM   12  N   UNL     1      10.551  18.367 -32.943  1.00  0.00    -0.315 N 
HETATM   13  C   UNL     1       9.703  18.913 -35.050  1.00  0.00     0.035 A 
HETATM   14  C   UNL     1       8.874  19.567 -35.944  1.00  0.00     0.021 A 
HETATM   15  C   UNL     1       9.629  19.123 -33.663  1.00  0.00     0.054 A 
HETATM   16  C   UNL     1       7.982  20.526 -35.442  1.00  0.00     0.002 A 
HETATM   17  C   UNL     1       7.931  20.781 -34.069  1.00  0.00     0.002 A 
HETATM   18  C   UNL     1       8.738  20.062 -33.190  1.00  0.00     0.031 A 
HETATM   19  C   UNL     1      14.376  15.375 -30.981  1.00  0.00     0.016 C 
HETATM   20  C   UNL     1      12.128  14.655 -30.696  1.00  0.00     0.078 C 
HETATM   21  C   UNL     1      14.737  14.442 -29.991  1.00  0.00    -0.002 C 
HETATM   22  C   UNL     1      13.804  13.521 -29.507  1.00  0.00    -0.014 C 
HETATM   23  C   UNL     1      12.547  13.480 -30.089  1.00  0.00     0.081 C 
HETATM   24  O   UNL     1      11.158  15.369 -29.866  1.00  0.00    -0.278 OA
HETATM   25  O   UNL     1      10.805  17.418 -28.873  1.00  0.00    -0.259 OA
ENDBRANCH   3   4
ENDBRANCH   2   3
TORSDOF 2
ENDMDL
MODEL 6
REMARK VINA RESULT:      -6.7     26.577     29.131
REMARK  2 active torsions:
REMARK  status: ('A' for Active; 'I' for Inactive)
REMARK    1  A    between atoms: C_2  and  C_3 
REMARK    2  A    between atoms: C_3  and  C_4 
ROOT
HETATM    1  C   UNL     1      -0.896 -10.183 -26.794  1.00  0.00     0.005 C 
HETATM    2  C   UNL     1      -0.739  -8.916 -27.622  1.00  0.00    -0.002 C 
ENDROOT
BRANCH   2   3
HETATM    3  C   UNL     1      -2.104  -8.336 -27.981  1.00  0.00     0.030 C 
BRANCH   3   4
HETATM    4  C   UNL     1      -2.411  -6.974 -27.321  1.00  0.00     0.134 C 
HETATM    5  C   UNL     1      -1.216  -6.352 -26.685  1.00  0.00     0.070 C 
HETATM    6  C   UNL     1      -0.877  -6.557 -25.401  1.00  0.00     0.086 C 
HETATM    7  C   UNL     1      -0.605  -5.217 -27.406  1.00  0.00     0.298 C 
HETATM    8  N   UNL     1      -1.725  -7.168 -24.488  1.00  0.00    -0.223 NA
HETATM    9  C   UNL     1       0.280  -5.784 -24.951  1.00  0.00     0.024 C 
HETATM   10  C   UNL     1      -2.929  -7.342 -24.944  1.00  0.00     0.175 A 
HETATM   11  S   UNL     1      -4.267  -7.823 -23.881  1.00  0.00    -0.050 SA
HETATM   12  N   UNL     1      -3.372  -7.170 -26.250  1.00  0.00    -0.315 N 
HETATM   13  C   UNL     1      -5.386  -7.861 -25.289  1.00  0.00     0.035 A 
HETATM   14  C   UNL     1      -6.723  -8.217 -25.285  1.00  0.00     0.021 A 
HETATM   15  C   UNL     1      -4.710  -7.492 -26.465  1.00  0.00     0.054 A 
HETATM   16  C   UNL     1      -7.397  -8.282 -26.513  1.00  0.00     0.002 A 
HETATM   17  C   UNL     1      -6.724  -7.966 -27.696  1.00  0.00     0.002 A 
HETATM   18  C   UNL     1      -5.394  -7.553 -27.660  1.00  0.00     0.031 A 
HETATM   19  C   UNL     1       1.549  -6.300 -24.685  1.00  0.00     0.016 C 
HETATM   20  C   UNL     1       0.194  -4.422 -25.226  1.00  0.00     0.078 C 
HETATM   21  C   UNL     1       2.662  -5.440 -24.755  1.00  0.00    -0.002 C 
HETATM   22  C   UNL     1       2.488  -4.061 -24.888  1.00  0.00    -0.014 C 
HETATM   23  C   UNL     1       1.202  -3.546 -24.852  1.00  0.00     0.081 C 
HETATM   24  O   UNL     1      -0.281  -4.144 -26.581  1.00  0.00    -0.278 OA
HETATM   25  O   UNL     1      -0.575  -5.159 -28.629  1.00  0.00    -0.259 OA
ENDBRANCH   3   4
ENDBRANCH   2   3
TORSDOF 2
ENDMDL
MODEL 7
REMARK VINA RESULT:      -6.7      2.698      6.399
REMARK  2 active torsions:
REMARK  status: ('A' for Active; 'I' for Inactive)
REMARK    1  A    between atoms: C_2  and  C_3 
REMARK    2  A    between atoms: C_3  and  C_4 
ROOT
HETATM    1  C   UNL     1      14.925  19.627 -34.591  1.00  0.00     0.005 C 
HETATM    2  C   UNL     1      13.945  19.331 -33.466  1.00  0.00    -0.002 C 
ENDROOT
BRANCH   2   3
HETATM    3  C   UNL     1      12.839  18.397 -33.948  1.00  0.00     0.030 C 
BRANCH   3   4
HETATM    4  C   UNL     1      11.560  18.427 -33.083  1.00  0.00     0.134 C 
HETATM    5  C   UNL     1      11.552  17.387 -32.016  1.00  0.00     0.070 C 
HETATM    6  C   UNL     1      11.041  16.157 -32.193  1.00  0.00     0.086 C 
HETATM    7  C   UNL     1      11.805  17.859 -30.640  1.00  0.00     0.298 C 
HETATM    8  N   UNL     1      10.266  15.816 -33.292  1.00  0.00    -0.223 NA
HETATM    9  C   UNL     1      11.054  15.320 -30.994  1.00  0.00     0.024 C 
HETATM   10  C   UNL     1       9.930  16.839 -34.020  1.00  0.00     0.175 A 
HETATM   11  S   UNL     1       8.706  16.711 -35.298  1.00  0.00    -0.050 SA
HETATM   12  N   UNL     1      10.410  18.140 -33.923  1.00  0.00    -0.315 N 
HETATM   13  C   UNL     1       8.956  18.441 -35.726  1.00  0.00     0.035 A 
HETATM   14  C   UNL     1       8.341  19.147 -36.745  1.00  0.00     0.021 A 
HETATM   15  C   UNL     1       9.917  19.022 -34.882  1.00  0.00     0.054 A 
HETATM   16  C   UNL     1       8.754  20.466 -36.981  1.00  0.00     0.002 A 
HETATM   17  C   UNL     1       9.744  21.042 -36.181  1.00  0.00     0.002 A 
HETATM   18  C   UNL     1      10.301  20.323 -35.125  1.00  0.00     0.031 A 
HETATM   19  C   UNL     1      11.893  14.226 -30.774  1.00  0.00     0.016 C 
HETATM   20  C   UNL     1      10.498  15.928 -29.872  1.00  0.00     0.078 C 
HETATM   21  C   UNL     1      12.166  13.832 -29.451  1.00  0.00    -0.002 C 
HETATM   22  C   UNL     1      11.459  14.389 -28.382  1.00  0.00    -0.014 C 
HETATM   23  C   UNL     1      10.419  15.264 -28.657  1.00  0.00     0.081 C 
HETATM   24  O   UNL     1      10.937  17.312 -29.697  1.00  0.00    -0.278 OA
HETATM   25  O   UNL     1      12.568  18.783 -30.394  1.00  0.00    -0.259 OA
ENDBRANCH   3   4
ENDBRANCH   2   3
TORSDOF 2
ENDMDL
MODEL 8
REMARK VINA RESULT:      -6.6      8.282     11.088
REMARK  2 active torsions:
REMARK  status: ('A' for Active; 'I' for Inactive)
REMARK    1  A    between atoms: C_2  and  C_3 
REMARK    2  A    between atoms: C_3  and  C_4 
ROOT
HETATM    1  C   UNL     1      24.524  16.904 -35.240  1.00  0.00     0.005 C 
HETATM    2  C   UNL     1      23.537  16.185 -34.334  1.00  0.00    -0.002 C 
ENDROOT
BRANCH   2   3
HETATM    3  C   UNL     1      22.521  17.168 -33.758  1.00  0.00     0.030 C 
BRANCH   3   4
HETATM    4  C   UNL     1      22.630  17.375 -32.232  1.00  0.00     0.134 C 
HETATM    5  C   UNL     1      21.659  16.549 -31.461  1.00  0.00     0.070 C 
HETATM    6  C   UNL     1      20.431  16.979 -31.127  1.00  0.00     0.086 C 
HETATM    7  C   UNL     1      22.211  15.370 -30.763  1.00  0.00     0.298 C 
HETATM    8  N   UNL     1      20.037  18.303 -31.258  1.00  0.00    -0.223 NA
HETATM    9  C   UNL     1      19.670  16.048 -30.294  1.00  0.00     0.024 C 
HETATM   10  C   UNL     1      21.019  19.104 -31.547  1.00  0.00     0.175 A 
HETATM   11  S   UNL     1      20.835  20.867 -31.474  1.00  0.00    -0.050 SA
HETATM   12  N   UNL     1      22.313  18.756 -31.915  1.00  0.00    -0.315 N 
HETATM   13  C   UNL     1      22.529  21.079 -32.042  1.00  0.00     0.035 A 
HETATM   14  C   UNL     1      23.183  22.271 -32.298  1.00  0.00     0.021 A 
HETATM   15  C   UNL     1      23.143  19.829 -32.232  1.00  0.00     0.054 A 
HETATM   16  C   UNL     1      24.476  22.217 -32.837  1.00  0.00     0.002 A 
HETATM   17  C   UNL     1      25.081  20.981 -33.078  1.00  0.00     0.002 A 
HETATM   18  C   UNL     1      24.419  19.799 -32.753  1.00  0.00     0.031 A 
HETATM   19  C   UNL     1      18.576  15.290 -30.713  1.00  0.00     0.016 C 
HETATM   20  C   UNL     1      20.358  15.601 -29.170  1.00  0.00     0.078 C 
HETATM   21  C   UNL     1      18.260  14.107 -30.018  1.00  0.00    -0.002 C 
HETATM   22  C   UNL     1      18.897  13.799 -28.813  1.00  0.00    -0.014 C 
HETATM   23  C   UNL     1      19.773  14.725 -28.268  1.00  0.00     0.081 C 
HETATM   24  O   UNL     1      21.742  15.225 -29.460  1.00  0.00    -0.278 OA
HETATM   25  O   UNL     1      23.134  14.710 -31.222  1.00  0.00    -0.259 OA
ENDBRANCH   3   4
ENDBRANCH   2   3
TORSDOF 2
ENDMDL
MODEL 9
REMARK VINA RESULT:      -6.2     14.728     17.441
REMARK  2 active torsions:
REMARK  status: ('A' for Active; 'I' for Inactive)
REMARK    1  A    between atoms: C_2  and  C_3 
REMARK    2  A    between atoms: C_3  and  C_4 
ROOT
HETATM    1  C   UNL     1      13.719  17.641 -52.965  1.00  0.00     0.005 C 
HETATM    2  C   UNL     1      13.924  17.155 -51.538  1.00  0.00    -0.002 C 
ENDROOT
BRANCH   2   3
HETATM    3  C   UNL     1      12.848  16.143 -51.155  1.00  0.00     0.030 C 
BRANCH   3   4
HETATM    4  C   UNL     1      12.403  16.217 -49.678  1.00  0.00     0.134 C 
HETATM    5  C   UNL     1      13.547  16.263 -48.725  1.00  0.00     0.070 C 
HETATM    6  C   UNL     1      14.100  15.162 -48.189  1.00  0.00     0.086 C 
HETATM    7  C   UNL     1      13.833  17.573 -48.107  1.00  0.00     0.298 C 
HETATM    8  N   UNL     1      13.517  13.907 -48.280  1.00  0.00    -0.223 NA
HETATM    9  C   UNL     1      15.153  15.432 -47.210  1.00  0.00     0.024 C 
HETATM   10  C   UNL     1      12.310  13.936 -48.761  1.00  0.00     0.175 A 
HETATM   11  S   UNL     1      11.250  12.514 -48.701  1.00  0.00    -0.050 SA
HETATM   12  N   UNL     1      11.658  15.015 -49.345  1.00  0.00    -0.315 N 
HETATM   13  C   UNL     1       9.962  13.424 -49.567  1.00  0.00     0.035 A 
HETATM   14  C   UNL     1       8.726  12.948 -49.966  1.00  0.00     0.021 A 
HETATM   15  C   UNL     1      10.383  14.738 -49.832  1.00  0.00     0.054 A 
HETATM   16  C   UNL     1       7.903  13.792 -50.726  1.00  0.00     0.002 A 
HETATM   17  C   UNL     1       8.328  15.085 -51.039  1.00  0.00     0.002 A 
HETATM   18  C   UNL     1       9.554  15.555 -50.571  1.00  0.00     0.031 A 
HETATM   19  C   UNL     1      16.519  15.225 -47.408  1.00  0.00     0.016 C 
HETATM   20  C   UNL     1      14.786  16.334 -46.216  1.00  0.00     0.078 C 
HETATM   21  C   UNL     1      17.438  15.962 -46.637  1.00  0.00    -0.002 C 
HETATM   22  C   UNL     1      17.003  16.735 -45.558  1.00  0.00    -0.014 C 
HETATM   23  C   UNL     1      15.664  16.686 -45.202  1.00  0.00     0.081 C 
HETATM   24  O   UNL     1      14.076  17.501 -46.738  1.00  0.00    -0.278 OA
HETATM   25  O   UNL     1      13.674  18.629 -48.707  1.00  0.00    -0.259 OA
ENDBRANCH   3   4
ENDBRANCH   2   3
TORSDOF 2
ENDMDL
