MODEL 1
REMARK VINA RESULT:      -9.3      0.000      0.000
REMARK  1 active torsions:
REMARK  status: ('A' for Active; 'I' for Inactive)
REMARK    1  A    between atoms: C_21  and  C_22 
ROOT
HETATM    1  O   UNL     1       7.836  16.129 -31.154  1.00  0.00    -0.259 OA
HETATM    2  C   UNL     1       8.820  15.644 -30.620  1.00  0.00     0.299 C 
HETATM    3  O   UNL     1       8.868  14.323 -30.173  1.00  0.00    -0.274 OA
HETATM    4  C   UNL     1       9.470  14.242 -28.910  1.00  0.00     0.092 C 
HETATM    5  C   UNL     1       8.872  13.411 -27.978  1.00  0.00     0.038 C 
HETATM    6  C   UNL     1       8.966  13.775 -26.644  1.00  0.00     0.003 C 
HETATM    7  C   UNL     1       9.919  14.719 -26.255  1.00  0.00     0.001 C 
HETATM    8  C   UNL     1      10.756  15.316 -27.207  1.00  0.00     0.017 C 
HETATM    9  C   UNL     1      10.475  15.140 -28.559  1.00  0.00     0.028 C 
HETATM   10  C   UNL     1      11.023  15.965 -29.638  1.00  0.00     0.087 C 
HETATM   11  N   UNL     1      12.344  16.363 -29.640  1.00  0.00    -0.223 NA
HETATM   12  C   UNL     1      12.683  17.069 -30.676  1.00  0.00     0.175 A 
HETATM   13  S   UNL     1      14.363  17.593 -30.916  1.00  0.00    -0.050 SA
HETATM   14  C   UNL     1      13.903  18.413 -32.437  1.00  0.00     0.035 A 
HETATM   15  C   UNL     1      14.733  19.140 -33.291  1.00  0.00     0.021 A 
HETATM   16  C   UNL     1      14.173  19.691 -34.443  1.00  0.00     0.002 A 
HETATM   17  C   UNL     1      12.819  19.505 -34.721  1.00  0.00     0.002 A 
HETATM   18  C   UNL     1      11.996  18.771 -33.862  1.00  0.00     0.031 A 
HETATM   19  C   UNL     1      12.535  18.234 -32.693  1.00  0.00     0.055 A 
HETATM   20  N   UNL     1      11.870  17.519 -31.705  1.00  0.00    -0.311 N 
HETATM   21  C   UNL     1      10.429  17.306 -31.661  1.00  0.00     0.170 C 
HETATM   22  C   UNL     1      10.128  16.322 -30.573  1.00  0.00     0.075 C 
ENDROOT
BRANCH  21  23
HETATM   23  C   UNL     1       9.653  18.626 -31.523  1.00  0.00     0.013 A 
HETATM   24  C   UNL     1       8.827  19.078 -32.584  1.00  0.00     0.044 A 
HETATM   25 CL   UNL     1       8.654  18.223 -34.088  1.00  0.00    -0.084 Cl
HETATM   26  C   UNL     1       8.102  20.268 -32.490  1.00  0.00     0.024 A 
HETATM   27  C   UNL     1       8.151  21.041 -31.337  1.00  0.00     0.003 A 
HETATM   28  C   UNL     1       8.935  20.623 -30.281  1.00  0.00     0.024 A 
HETATM   29  C   UNL     1       9.682  19.433 -30.364  1.00  0.00     0.044 A 
HETATM   30 CL   UNL     1      10.606  19.080 -28.949  1.00  0.00    -0.084 Cl
ENDBRANCH  21  23
TORSDOF 1
ENDMDL
MODEL 2
REMARK VINA RESULT:      -9.2      2.794      4.210
REMARK  1 active torsions:
REMARK  status: ('A' for Active; 'I' for Inactive)
REMARK    1  A    between atoms: C_21  and  C_22 
ROOT
HETATM    1  O   UNL     1      11.255  16.793 -28.580  1.00  0.00    -0.259 OA
HETATM    2  C   UNL     1      11.712  16.189 -29.536  1.00  0.00     0.299 C 
HETATM    3  O   UNL     1      11.917  14.808 -29.534  1.00  0.00    -0.274 OA
HETATM    4  C   UNL     1      13.156  14.484 -30.102  1.00  0.00     0.092 C 
HETATM    5  C   UNL     1      13.913  13.520 -29.456  1.00  0.00     0.038 C 
HETATM    6  C   UNL     1      15.292  13.637 -29.529  1.00  0.00     0.003 C 
HETATM    7  C   UNL     1      15.862  14.465 -30.499  1.00  0.00     0.001 C 
HETATM    8  C   UNL     1      15.049  15.193 -31.376  1.00  0.00     0.017 C 
HETATM    9  C   UNL     1      13.682  15.271 -31.124  1.00  0.00     0.028 C 
HETATM   10  C   UNL     1      12.779  16.256 -31.722  1.00  0.00     0.087 C 
HETATM   11  N   UNL     1      12.873  16.604 -33.054  1.00  0.00    -0.223 NA
HETATM   12  C   UNL     1      11.987  17.471 -33.439  1.00  0.00     0.175 A 
HETATM   13  S   UNL     1      11.877  17.974 -35.139  1.00  0.00    -0.050 SA
HETATM   14  C   UNL     1      10.518  19.067 -34.741  1.00  0.00     0.035 A 
HETATM   15  C   UNL     1       9.824  19.907 -35.613  1.00  0.00     0.021 A 
HETATM   16  C   UNL     1       8.779  20.673 -35.097  1.00  0.00     0.002 A 
HETATM   17  C   UNL     1       8.446  20.584 -33.746  1.00  0.00     0.002 A 
HETATM   18  C   UNL     1       9.144  19.736 -32.881  1.00  0.00     0.031 A 
HETATM   19  C   UNL     1      10.208  18.982 -33.375  1.00  0.00     0.055 A 
HETATM   20  N   UNL     1      11.039  18.125 -32.665  1.00  0.00    -0.311 N 
HETATM   21  C   UNL     1      11.016  17.955 -31.218  1.00  0.00     0.170 C 
HETATM   22  C   UNL     1      11.905  16.804 -30.862  1.00  0.00     0.075 C 
ENDROOT
BRANCH  21  23
HETATM   23  C   UNL     1      11.374  19.254 -30.477  1.00  0.00     0.013 A 
HETATM   24  C   UNL     1      10.412  19.885 -29.647  1.00  0.00     0.044 A 
HETATM   25 CL   UNL     1       8.797  19.280 -29.429  1.00  0.00    -0.084 Cl
HETATM   26  C   UNL     1      10.704  21.062 -28.953  1.00  0.00     0.024 A 
HETATM   27  C   UNL     1      11.963  21.644 -29.040  1.00  0.00     0.003 A 
HETATM   28  C   UNL     1      12.925  21.049 -29.829  1.00  0.00     0.024 A 
HETATM   29  C   UNL     1      12.644  19.870 -30.545  1.00  0.00     0.044 A 
HETATM   30 CL   UNL     1      13.968  19.279 -31.482  1.00  0.00    -0.084 Cl
ENDBRANCH  21  23
TORSDOF 1
ENDMDL
MODEL 3
REMARK VINA RESULT:      -9.0      3.076      6.559
REMARK  1 active torsions:
REMARK  status: ('A' for Active; 'I' for Inactive)
REMARK    1  A    between atoms: C_21  and  C_22 
ROOT
HETATM    1  O   UNL     1      12.937  18.621 -33.691  1.00  0.00    -0.259 OA
HETATM    2  C   UNL     1      11.982  17.996 -34.125  1.00  0.00     0.299 C 
HETATM    3  O   UNL     1      11.904  17.550 -35.445  1.00  0.00    -0.274 OA
HETATM    4  C   UNL     1      10.629  17.779 -35.977  1.00  0.00     0.092 C 
HETATM    5  C   UNL     1      10.564  18.277 -37.268  1.00  0.00     0.038 C 
HETATM    6  C   UNL     1       9.500  19.111 -37.578  1.00  0.00     0.003 C 
HETATM    7  C   UNL     1       8.381  19.138 -36.743  1.00  0.00     0.001 C 
HETATM    8  C   UNL     1       8.342  18.350 -35.585  1.00  0.00     0.017 C 
HETATM    9  C   UNL     1       9.509  17.727 -35.150  1.00  0.00     0.028 C 
HETATM   10  C   UNL     1       9.712  17.182 -33.806  1.00  0.00     0.087 C 
HETATM   11  N   UNL     1       8.719  16.477 -33.158  1.00  0.00    -0.223 NA
HETATM   12  C   UNL     1       9.061  16.038 -31.985  1.00  0.00     0.175 A 
HETATM   13  S   UNL     1       7.959  15.023 -31.032  1.00  0.00    -0.050 SA
HETATM   14  C   UNL     1       9.167  14.924 -29.717  1.00  0.00     0.035 A 
HETATM   15  C   UNL     1       9.039  14.258 -28.497  1.00  0.00     0.021 A 
HETATM   16  C   UNL     1      10.115  14.294 -27.610  1.00  0.00     0.002 A 
HETATM   17  C   UNL     1      11.282  14.975 -27.953  1.00  0.00     0.002 A 
HETATM   18  C   UNL     1      11.403  15.635 -29.179  1.00  0.00     0.031 A 
HETATM   19  C   UNL     1      10.328  15.631 -30.067  1.00  0.00     0.055 A 
HETATM   20  N   UNL     1      10.247  16.261 -31.302  1.00  0.00    -0.311 N 
HETATM   21  C   UNL     1      11.257  17.162 -31.843  1.00  0.00     0.170 C 
HETATM   22  C   UNL     1      10.908  17.465 -33.266  1.00  0.00     0.075 C 
ENDROOT
BRANCH  21  23
HETATM   23  C   UNL     1      11.433  18.420 -30.976  1.00  0.00     0.013 A 
HETATM   24  C   UNL     1      12.701  18.723 -30.414  1.00  0.00     0.044 A 
HETATM   25 CL   UNL     1      14.102  17.716 -30.626  1.00  0.00    -0.084 Cl
HETATM   26  C   UNL     1      12.900  19.860 -29.628  1.00  0.00     0.024 A 
HETATM   27  C   UNL     1      11.859  20.748 -29.388  1.00  0.00     0.003 A 
HETATM   28  C   UNL     1      10.617  20.490 -29.930  1.00  0.00     0.024 A 
HETATM   29  C   UNL     1      10.396  19.342 -30.714  1.00  0.00     0.044 A 
HETATM   30 CL   UNL     1       8.778  19.186 -31.298  1.00  0.00    -0.084 Cl
ENDBRANCH  21  23
TORSDOF 1
ENDMDL
MODEL 4
REMARK VINA RESULT:      -8.9      3.206      6.331
REMARK  1 active torsions:
REMARK  status: ('A' for Active; 'I' for Inactive)
REMARK    1  A    between atoms: C_21  and  C_22 
ROOT
HETATM    1  O   UNL     1      10.583  18.990 -29.595  1.00  0.00    -0.259 OA
HETATM    2  C   UNL     1      11.610  19.535 -29.965  1.00  0.00     0.299 C 
HETATM    3  O   UNL     1      11.915  20.863 -29.665  1.00  0.00    -0.274 OA
HETATM    4  C   UNL     1      12.431  21.525 -30.787  1.00  0.00     0.092 C 
HETATM    5  C   UNL     1      11.966  22.807 -31.032  1.00  0.00     0.038 C 
HETATM    6  C   UNL     1      11.886  23.214 -32.355  1.00  0.00     0.003 C 
HETATM    7  C   UNL     1      12.578  22.503 -33.337  1.00  0.00     0.001 C 
HETATM    8  C   UNL     1      13.329  21.370 -32.996  1.00  0.00     0.017 C 
HETATM    9  C   UNL     1      13.187  20.824 -31.723  1.00  0.00     0.028 C 
HETATM   10  C   UNL     1      13.615  19.476 -31.343  1.00  0.00     0.087 C 
HETATM   11  N   UNL     1      14.813  18.950 -31.780  1.00  0.00    -0.223 NA
HETATM   12  C   UNL     1      15.060  17.755 -31.337  1.00  0.00     0.175 A 
HETATM   13  S   UNL     1      16.596  16.943 -31.704  1.00  0.00    -0.050 SA
HETATM   14  C   UNL     1      16.075  15.508 -30.773  1.00  0.00     0.035 A 
HETATM   15  C   UNL     1      16.782  14.320 -30.580  1.00  0.00     0.021 A 
HETATM   16  C   UNL     1      16.195  13.323 -29.801  1.00  0.00     0.002 A 
HETATM   17  C   UNL     1      14.938  13.527 -29.232  1.00  0.00     0.002 A 
HETATM   18  C   UNL     1      14.239  14.721 -29.428  1.00  0.00     0.031 A 
HETATM   19  C   UNL     1      14.800  15.720 -30.224  1.00  0.00     0.055 A 
HETATM   20  N   UNL     1      14.241  16.944 -30.564  1.00  0.00    -0.311 N 
HETATM   21  C   UNL     1      12.883  17.358 -30.236  1.00  0.00     0.170 C 
HETATM   22  C   UNL     1      12.731  18.806 -30.586  1.00  0.00     0.075 C 
ENDROOT
BRANCH  21  23
HETATM   23  C   UNL     1      11.828  16.456 -30.898  1.00  0.00     0.013 A 
HETATM   24  C   UNL     1      10.919  15.720 -30.094  1.00  0.00     0.044 A 
HETATM   25 CL   UNL     1      10.941  15.753 -28.356  1.00  0.00    -0.084 Cl
HETATM   26  C   UNL     1       9.943  14.897 -30.661  1.00  0.00     0.024 A 
HETATM   27  C   UNL     1       9.818  14.788 -32.040  1.00  0.00     0.003 A 
HETATM   28  C   UNL     1      10.679  15.500 -32.850  1.00  0.00     0.024 A 
HETATM   29  C   UNL     1      11.676  16.325 -32.296  1.00  0.00     0.044 A 
HETATM   30 CL   UNL     1      12.659  17.128 -33.466  1.00  0.00    -0.084 Cl
ENDBRANCH  21  23
TORSDOF 1
ENDMDL
MODEL 5
REMARK VINA RESULT:      -8.2      3.029      4.787
REMARK  1 active torsions:
REMARK  status: ('A' for Active; 'I' for Inactive)
REMARK    1  A    between atoms: C_21  and  C_22 
ROOT
HETATM    1  O   UNL     1      13.064  17.091 -33.751  1.00  0.00    -0.259 OA
HETATM    2  C   UNL     1      13.008  17.151 -32.533  1.00  0.00     0.299 C 
HETATM    3  O   UNL     1      14.126  16.986 -31.714  1.00  0.00    -0.274 OA
HETATM    4  C   UNL     1      13.827  16.171 -30.615  1.00  0.00     0.092 C 
HETATM    5  C   UNL     1      14.764  15.210 -30.269  1.00  0.00     0.038 C 
HETATM    6  C   UNL     1      14.292  14.029 -29.716  1.00  0.00     0.003 C 
HETATM    7  C   UNL     1      12.993  13.978 -29.208  1.00  0.00     0.001 C 
HETATM    8  C   UNL     1      12.159  15.103 -29.279  1.00  0.00     0.017 C 
HETATM    9  C   UNL     1      12.548  16.184 -30.065  1.00  0.00     0.028 C 
HETATM   10  C   UNL     1      11.652  17.251 -30.516  1.00  0.00     0.087 C 
HETATM   11  N   UNL     1      10.702  17.796 -29.677  1.00  0.00    -0.223 NA
HETATM   12  C   UNL     1      10.003  18.748 -30.216  1.00  0.00     0.175 A 
HETATM   13  S   UNL     1       8.798  19.647 -29.271  1.00  0.00    -0.050 SA
HETATM   14  C   UNL     1       8.395  20.639 -30.703  1.00  0.00     0.035 A 
HETATM   15  C   UNL     1       7.441  21.654 -30.789  1.00  0.00     0.021 A 
HETATM   16  C   UNL     1       7.294  22.319 -32.006  1.00  0.00     0.002 A 
HETATM   17  C   UNL     1       8.093  21.971 -33.095  1.00  0.00     0.002 A 
HETATM   18  C   UNL     1       9.049  20.956 -32.998  1.00  0.00     0.031 A 
HETATM   19  C   UNL     1       9.192  20.264 -31.796  1.00  0.00     0.055 A 
HETATM   20  N   UNL     1      10.050  19.206 -31.525  1.00  0.00    -0.311 N 
HETATM   21  C   UNL     1      10.887  18.540 -32.515  1.00  0.00     0.170 C 
HETATM   22  C   UNL     1      11.811  17.604 -31.802  1.00  0.00     0.075 C 
ENDROOT
BRANCH  21  23
HETATM   23  C   UNL     1      10.053  17.858 -33.612  1.00  0.00     0.013 A 
HETATM   24  C   UNL     1      10.197  18.257 -34.966  1.00  0.00     0.044 A 
HETATM   25 CL   UNL     1      11.269  19.528 -35.474  1.00  0.00    -0.084 Cl
HETATM   26  C   UNL     1       9.462  17.655 -35.989  1.00  0.00     0.024 A 
HETATM   27  C   UNL     1       8.575  16.622 -35.712  1.00  0.00     0.003 A 
HETATM   28  C   UNL     1       8.419  16.201 -34.408  1.00  0.00     0.024 A 
HETATM   29  C   UNL     1       9.143  16.806 -33.363  1.00  0.00     0.044 A 
HETATM   30 CL   UNL     1       8.810  16.150 -31.801  1.00  0.00    -0.084 Cl
ENDBRANCH  21  23
TORSDOF 1
ENDMDL
MODEL 6
REMARK VINA RESULT:      -7.7      2.990      4.721
REMARK  1 active torsions:
REMARK  status: ('A' for Active; 'I' for Inactive)
REMARK    1  A    between atoms: C_21  and  C_22 
ROOT
HETATM    1  O   UNL     1      14.084  17.668 -32.851  1.00  0.00    -0.259 OA
HETATM    2  C   UNL     1      13.718  17.453 -31.707  1.00  0.00     0.299 C 
HETATM    3  O   UNL     1      14.546  16.884 -30.739  1.00  0.00    -0.274 OA
HETATM    4  C   UNL     1      13.861  15.911 -30.001  1.00  0.00     0.092 C 
HETATM    5  C   UNL     1      14.535  14.730 -29.735  1.00  0.00     0.038 C 
HETATM    6  C   UNL     1      13.780  13.570 -29.646  1.00  0.00     0.003 C 
HETATM    7  C   UNL     1      12.397  13.661 -29.470  1.00  0.00     0.001 C 
HETATM    8  C   UNL     1      11.771  14.914 -29.411  1.00  0.00     0.017 C 
HETATM    9  C   UNL     1      12.495  16.049 -29.764  1.00  0.00     0.028 C 
HETATM   10  C   UNL     1      11.902  17.348 -30.091  1.00  0.00     0.087 C 
HETATM   11  N   UNL     1      10.847  17.860 -29.365  1.00  0.00    -0.223 NA
HETATM   12  C   UNL     1      10.450  19.031 -29.762  1.00  0.00     0.175 A 
HETATM   13  S   UNL     1       9.170  19.905 -28.896  1.00  0.00    -0.050 SA
HETATM   14  C   UNL     1       9.297  21.263 -30.052  1.00  0.00     0.035 A 
HETATM   15  C   UNL     1       8.545  22.439 -30.064  1.00  0.00     0.021 A 
HETATM   16  C   UNL     1       8.816  23.385 -31.053  1.00  0.00     0.002 A 
HETATM   17  C   UNL     1       9.819  23.148 -31.992  1.00  0.00     0.002 A 
HETATM   18  C   UNL     1      10.571  21.969 -31.969  1.00  0.00     0.031 A 
HETATM   19  C   UNL     1      10.297  21.002 -31.003  1.00  0.00     0.055 A 
HETATM   20  N   UNL     1      10.902  19.762 -30.851  1.00  0.00    -0.311 N 
HETATM   21  C   UNL     1      11.874  19.192 -31.776  1.00  0.00     0.170 C 
HETATM   22  C   UNL     1      12.442  17.951 -31.162  1.00  0.00     0.075 C 
ENDROOT
BRANCH  21  23
HETATM   23  C   UNL     1      11.275  18.964 -33.174  1.00  0.00     0.013 A 
HETATM   24  C   UNL     1      11.844  19.606 -34.304  1.00  0.00     0.044 A 
HETATM   25 CL   UNL     1      13.198  20.692 -34.200  1.00  0.00    -0.084 Cl
HETATM   26  C   UNL     1      11.332  19.416 -35.589  1.00  0.00     0.024 A 
HETATM   27  C   UNL     1      10.253  18.567 -35.805  1.00  0.00     0.003 A 
HETATM   28  C   UNL     1       9.684  17.916 -34.729  1.00  0.00     0.024 A 
HETATM   29  C   UNL     1      10.180  18.107 -33.426  1.00  0.00     0.044 A 
HETATM   30 CL   UNL     1       9.336  17.216 -32.211  1.00  0.00    -0.084 Cl
ENDBRANCH  21  23
TORSDOF 1
ENDMDL
MODEL 7
REMARK VINA RESULT:      -7.7      3.864      5.853
REMARK  1 active torsions:
REMARK  status: ('A' for Active; 'I' for Inactive)
REMARK    1  A    between atoms: C_21  and  C_22 
ROOT
HETATM    1  O   UNL     1      14.597  19.447 -34.356  1.00  0.00    -0.259 OA
HETATM    2  C   UNL     1      14.544  19.031 -33.210  1.00  0.00     0.299 C 
HETATM    3  O   UNL     1      15.666  18.927 -32.387  1.00  0.00    -0.274 OA
HETATM    4  C   UNL     1      15.665  17.712 -31.689  1.00  0.00     0.092 C 
HETATM    5  C   UNL     1      16.868  17.029 -31.609  1.00  0.00     0.038 C 
HETATM    6  C   UNL     1      16.814  15.645 -31.566  1.00  0.00     0.003 C 
HETATM    7  C   UNL     1      15.609  15.013 -31.251  1.00  0.00     0.001 C 
HETATM    8  C   UNL     1      14.455  15.769 -31.006  1.00  0.00     0.017 C 
HETATM    9  C   UNL     1      14.459  17.127 -31.310  1.00  0.00     0.028 C 
HETATM   10  C   UNL     1      13.259  17.955 -31.446  1.00  0.00     0.087 C 
HETATM   11  N   UNL     1      12.196  17.830 -30.575  1.00  0.00    -0.223 NA
HETATM   12  C   UNL     1      11.218  18.650 -30.812  1.00  0.00     0.175 A 
HETATM   13  S   UNL     1       9.801  18.717 -29.744  1.00  0.00    -0.050 SA
HETATM   14  C   UNL     1       9.076  19.995 -30.764  1.00  0.00     0.035 A 
HETATM   15  C   UNL     1       7.843  20.624 -30.586  1.00  0.00     0.021 A 
HETATM   16  C   UNL     1       7.470  21.613 -31.495  1.00  0.00     0.002 A 
HETATM   17  C   UNL     1       8.322  21.957 -32.545  1.00  0.00     0.002 A 
HETATM   18  C   UNL     1       9.557  21.324 -32.713  1.00  0.00     0.031 A 
HETATM   19  C   UNL     1       9.935  20.316 -31.827  1.00  0.00     0.055 A 
HETATM   20  N   UNL     1      11.094  19.552 -31.860  1.00  0.00    -0.311 N 
HETATM   21  C   UNL     1      12.087  19.592 -32.926  1.00  0.00     0.170 C 
HETATM   22  C   UNL     1      13.276  18.790 -32.498  1.00  0.00     0.075 C 
ENDROOT
BRANCH  21  23
HETATM   23  C   UNL     1      11.503  19.144 -34.276  1.00  0.00     0.013 A 
HETATM   24  C   UNL     1      11.457  20.052 -35.366  1.00  0.00     0.044 A 
HETATM   25 CL   UNL     1      12.010  21.697 -35.259  1.00  0.00    -0.084 Cl
HETATM   26  C   UNL     1      10.941  19.678 -36.608  1.00  0.00     0.024 A 
HETATM   27  C   UNL     1      10.472  18.389 -36.824  1.00  0.00     0.003 A 
HETATM   28  C   UNL     1      10.513  17.477 -35.789  1.00  0.00     0.024 A 
HETATM   29  C   UNL     1      11.018  17.841 -34.527  1.00  0.00     0.044 A 
HETATM   30 CL   UNL     1      10.982  16.570 -33.358  1.00  0.00    -0.084 Cl
ENDBRANCH  21  23
TORSDOF 1
ENDMDL
MODEL 8
REMARK VINA RESULT:      -7.6      2.803      6.728
REMARK  1 active torsions:
REMARK  status: ('A' for Active; 'I' for Inactive)
REMARK    1  A    between atoms: C_21  and  C_22 
ROOT
HETATM    1  O   UNL     1      12.230  21.428 -31.537  1.00  0.00    -0.259 OA
HETATM    2  C   UNL     1      13.328  20.898 -31.584  1.00  0.00     0.299 C 
HETATM    3  O   UNL     1      14.520  21.607 -31.438  1.00  0.00    -0.274 OA
HETATM    4  C   UNL     1      15.469  21.195 -32.382  1.00  0.00     0.092 C 
HETATM    5  C   UNL     1      16.204  22.185 -33.012  1.00  0.00     0.038 C 
HETATM    6  C   UNL     1      16.606  21.948 -34.318  1.00  0.00     0.003 C 
HETATM    7  C   UNL     1      16.582  20.645 -34.819  1.00  0.00     0.001 C 
HETATM    8  C   UNL     1      16.129  19.586 -34.021  1.00  0.00     0.017 C 
HETATM    9  C   UNL     1      15.487  19.872 -32.819  1.00  0.00     0.028 C 
HETATM   10  C   UNL     1      14.663  18.923 -32.068  1.00  0.00     0.087 C 
HETATM   11  N   UNL     1      15.041  17.604 -31.918  1.00  0.00    -0.223 NA
HETATM   12  C   UNL     1      14.218  16.896 -31.205  1.00  0.00     0.175 A 
HETATM   13  S   UNL     1      14.574  15.201 -30.811  1.00  0.00    -0.050 SA
HETATM   14  C   UNL     1      13.040  15.076 -29.902  1.00  0.00     0.035 A 
HETATM   15  C   UNL     1      12.534  13.955 -29.244  1.00  0.00     0.021 A 
HETATM   16  C   UNL     1      11.314  14.075 -28.577  1.00  0.00     0.002 A 
HETATM   17  C   UNL     1      10.637  15.294 -28.573  1.00  0.00     0.002 A 
HETATM   18  C   UNL     1      11.154  16.414 -29.231  1.00  0.00     0.031 A 
HETATM   19  C   UNL     1      12.359  16.304 -29.923  1.00  0.00     0.055 A 
HETATM   20  N   UNL     1      13.001  17.286 -30.665  1.00  0.00    -0.311 N 
HETATM   21  C   UNL     1      12.449  18.604 -30.955  1.00  0.00     0.170 C 
HETATM   22  C   UNL     1      13.517  19.436 -31.593  1.00  0.00     0.075 C 
ENDROOT
BRANCH  21  23
HETATM   23  C   UNL     1      11.160  18.519 -31.790  1.00  0.00     0.013 A 
HETATM   24  C   UNL     1       9.942  19.025 -31.269  1.00  0.00     0.044 A 
HETATM   25 CL   UNL     1       9.803  19.729 -29.685  1.00  0.00    -0.084 Cl
HETATM   26  C   UNL     1       8.754  18.972 -32.002  1.00  0.00     0.024 A 
HETATM   27  C   UNL     1       8.734  18.436 -33.283  1.00  0.00     0.003 A 
HETATM   28  C   UNL     1       9.905  17.947 -33.826  1.00  0.00     0.024 A 
HETATM   29  C   UNL     1      11.108  17.981 -33.096  1.00  0.00     0.044 A 
HETATM   30 CL   UNL     1      12.463  17.317 -33.935  1.00  0.00    -0.084 Cl
ENDBRANCH  21  23
TORSDOF 1
ENDMDL
MODEL 9
REMARK VINA RESULT:      -7.5     24.828     27.436
REMARK  1 active torsions:
REMARK  status: ('A' for Active; 'I' for Inactive)
REMARK    1  A    between atoms: C_21  and  C_22 
ROOT
HETATM    1  O   UNL     1      -0.566  -4.778 -27.783  1.00  0.00    -0.259 OA
HETATM    2  C   UNL     1      -0.897  -5.886 -28.175  1.00  0.00     0.299 C 
HETATM    3  O   UNL     1      -1.862  -6.084 -29.163  1.00  0.00    -0.274 OA
HETATM    4  C   UNL     1      -2.730  -7.127 -28.815  1.00  0.00     0.092 C 
HETATM    5  C   UNL     1      -4.082  -6.924 -29.041  1.00  0.00     0.038 C 
HETATM    6  C   UNL     1      -4.972  -7.534 -28.170  1.00  0.00     0.003 C 
HETATM    7  C   UNL     1      -4.531  -8.576 -27.352  1.00  0.00     0.001 C 
HETATM    8  C   UNL     1      -3.192  -8.988 -27.389  1.00  0.00     0.017 C 
HETATM    9  C   UNL     1      -2.262  -8.202 -28.063  1.00  0.00     0.028 C 
HETATM   10  C   UNL     1      -0.810  -8.301 -27.896  1.00  0.00     0.087 C 
HETATM   11  N   UNL     1      -0.179  -9.524 -27.798  1.00  0.00    -0.223 NA
HETATM   12  C   UNL     1       1.112  -9.445 -27.678  1.00  0.00     0.175 A 
HETATM   13  S   UNL     1       2.118 -10.908 -27.637  1.00  0.00    -0.050 SA
HETATM   14  C   UNL     1       3.590  -9.907 -27.469  1.00  0.00     0.035 A 
HETATM   15  C   UNL     1       4.907 -10.351 -27.347  1.00  0.00     0.021 A 
HETATM   16  C   UNL     1       5.918  -9.396 -27.240  1.00  0.00     0.002 A 
HETATM   17  C   UNL     1       5.603  -8.038 -27.263  1.00  0.00     0.002 A 
HETATM   18  C   UNL     1       4.281  -7.602 -27.390  1.00  0.00     0.031 A 
HETATM   19  C   UNL     1       3.255  -8.543 -27.473  1.00  0.00     0.055 A 
HETATM   20  N   UNL     1       1.891  -8.303 -27.560  1.00  0.00    -0.311 N 
HETATM   21  C   UNL     1       1.270  -6.989 -27.454  1.00  0.00     0.170 C 
HETATM   22  C   UNL     1      -0.179  -7.119 -27.805  1.00  0.00     0.075 C 
ENDROOT
BRANCH  21  23
HETATM   23  C   UNL     1       1.510  -6.346 -26.078  1.00  0.00     0.013 A 
HETATM   24  C   UNL     1       2.255  -5.143 -25.977  1.00  0.00     0.044 A 
HETATM   25 CL   UNL     1       2.962  -4.342 -27.349  1.00  0.00    -0.084 Cl
HETATM   26  C   UNL     1       2.486  -4.527 -24.745  1.00  0.00     0.024 A 
HETATM   27  C   UNL     1       1.970  -5.066 -23.573  1.00  0.00     0.003 A 
HETATM   28  C   UNL     1       1.229  -6.228 -23.638  1.00  0.00     0.024 A 
HETATM   29  C   UNL     1       0.998  -6.869 -24.869  1.00  0.00     0.044 A 
HETATM   30 CL   UNL     1       0.058  -8.312 -24.749  1.00  0.00    -0.084 Cl
ENDBRANCH  21  23
TORSDOF 1
ENDMDL
